version 3
run Netgate-0-20230624-11:19:30-17464
attr configname Netgate
attr datetime 20230624-11:19:30
attr datetimef 20230624-111930
attr experiment Netgate
attr inifile omnetpp.ini
attr iterationvars ""
attr iterationvarsd ""
attr iterationvarsf ""
attr measurement ""
attr network Vntnet
attr processid 17464
attr repetition 0
attr replication #0
attr resultdir results
attr runnumber 0
attr seedset 0
config image-path ../../omnetpp-6.0.1-windows-x86_64/omnetpp-6.0.1/samples/inet/images
config network Vntnet
config description manet
config **.num_node 10
config **.num_msg.result-recording-modes vector,histogram
config check-signals true
config **.vtn_node[*].mobility.typename TurtleMobility
config **.vtn_node[0].mobility.turtleScript "xmldoc(\"turtle.xml\", \"movements//movement[@id='1']\")"
config **.vtn_node[1].mobility.turtleScript "xmldoc(\"turtle.xml\", \"movements//movement[@id='2']\")"
config **.vtn_node[2].mobility.turtleScript "xmldoc(\"turtle.xml\", \"movements//movement[@id='3']\")"
config **.vtn_node[3].mobility.turtleScript "xmldoc(\"turtle.xml\", \"movements//movement[@id='4']\")"
config **.vtn_node[4].mobility.turtleScript "xmldoc(\"turtle.xml\", \"movements//movement[@id='5']\")"
config **.vtn_node[5].mobility.turtleScript "xmldoc(\"turtle.xml\", \"movements//movement[@id='6']\")"
config **.vtn_node[6].mobility.turtleScript "xmldoc(\"turtle.xml\", \"movements//movement[@id='7']\")"
config **.vtn_node[7].mobility.turtleScript "xmldoc(\"turtle.xml\", \"movements//movement[@id='8']\")"
config **.vtn_node[8].mobility.turtleScript "xmldoc(\"turtle.xml\", \"movements//movement[@id='9']\")"
config **.vtn_node[9].mobility.turtleScript "xmldoc(\"turtle.xml\", \"movements//movement[@id='10']\")"
config **.vtn_node[10].mobility.turtleScript "xmldoc(\"turtle.xml\", \"movements//movement[@id='11']\")"
config **.vtn_node[11].mobility.turtleScript "xmldoc(\"turtle.xml\", \"movements//movement[@id='12']\")"
config **.vtn_node[12].mobility.turtleScript "xmldoc(\"turtle.xml\", \"movements//movement[@id='13']\")"
config **.vtn_node[13].mobility.turtleScript "xmldoc(\"turtle.xml\", \"movements//movement[@id='14']\")"
config **.vtn_node[14].mobility.turtleScript "xmldoc(\"turtle.xml\", \"movements//movement[@id='15']\")"
config **.vtn_node[15].mobility.turtleScript "xmldoc(\"turtle.xml\", \"movements//movement[@id='16']\")"
config **.vtn_node[16].mobility.turtleScript "xmldoc(\"turtle.xml\", \"movements//movement[@id='17']\")"
config **.vtn_node[17].mobility.turtleScript "xmldoc(\"turtle.xml\", \"movements//movement[@id='18']\")"
config **.vtn_node[18].mobility.turtleScript "xmldoc(\"turtle.xml\", \"movements//movement[@id='19']\")"
config **.vtn_node[19].mobility.turtleScript "xmldoc(\"turtle.xml\", \"movements//movement[@id='20']\")"
config **.vtn_node[20].mobility.turtleScript "xmldoc(\"turtle.xml\", \"movements//movement[@id='21']\")"
config **.vtn_node[21].mobility.turtleScript "xmldoc(\"turtle.xml\", \"movements//movement[@id='22']\")"
config **.vtn_node[22].mobility.turtleScript "xmldoc(\"turtle.xml\", \"movements//movement[@id='23']\")"
config **.vtn_node[23].mobility.turtleScript "xmldoc(\"turtle.xml\", \"movements//movement[@id='24']\")"
config **.vtn_node[24].mobility.turtleScript "xmldoc(\"turtle.xml\", \"movements//movement[@id='25']\")"
config **.vtn_node[25].mobility.turtleScript "xmldoc(\"turtle.xml\", \"movements//movement[@id='26']\")"
config **.vtn_node[26].mobility.turtleScript "xmldoc(\"turtle.xml\", \"movements//movement[@id='27']\")"
config **.vtn_node[27].mobility.turtleScript "xmldoc(\"turtle.xml\", \"movements//movement[@id='28']\")"
config **.vtn_node[28].mobility.turtleScript "xmldoc(\"turtle.xml\", \"movements//movement[@id='29']\")"
config **.vtn_node[29].mobility.turtleScript "xmldoc(\"turtle.xml\", \"movements//movement[@id='30']\")"
config **.vtn_node*.mobility.initFromDisplayString false
config **.vtn_node*.mobility.speed 50mps
config *.vtn_node[*].wlan[*].radio.transmitter.communicationRange 400m
config *.vtn_node[*].hasStatus true
config *.scenarioManager.script "xmldoc(\"moreDynamic.xml\")"
config *.environment.ground.typename FlatGround
config *.coordinateSystem.sceneLatitude 47.5377100deg
config *.coordinateSystem.sceneLongitude 19.0334000deg
config sim-time-limit 2minutes
config num-rngs 3
config **.mobility.rng-0 1
config **.wlan[*].mac.rng-0 2
config **.vtn_node[*].mobility.typename StationaryMobility
config **.mobility.constraintAreaMinZ 0m
config **.mobility.constraintAreaMaxZ 0m
config **.mobility.constraintAreaMinX 0m
config **.mobility.constraintAreaMinY 0m
config **.mobility.constraintAreaMaxX 300m
config **.mobility.constraintAreaMaxY 1000m
config *.vtn_node*.numApps 1
config *.vtn_node*.app[*].typename PingApp
config *.vtn_node*.app[*].startTime uniform(1s,5s)
config *.vtn_node*.app[*].printPing true
config **.hasStatus true

vector 0 Vntnet.vtn_node[0] coordX:vector ETV
attr interpolationmode linear
attr recordingmode vector
attr source xCoord(mobilityPos(mobilityStateChanged))
attr title "coord X"
vector 1 Vntnet.vtn_node[0] coordY:vector ETV
attr interpolationmode linear
attr recordingmode vector
attr source yCoord(mobilityPos(mobilityStateChanged))
attr title "coord Y"
vector 2 Vntnet.vtn_node[0] coordZ:vector ETV
attr interpolationmode linear
attr recordingmode vector
attr source zCoord(mobilityPos(mobilityStateChanged))
attr title "coord Z"
vector 3 Vntnet.vtn_node[1] coordX:vector ETV
attr interpolationmode linear
attr recordingmode vector
attr source xCoord(mobilityPos(mobilityStateChanged))
attr title "coord X"
vector 4 Vntnet.vtn_node[1] coordY:vector ETV
attr interpolationmode linear
attr recordingmode vector
attr source yCoord(mobilityPos(mobilityStateChanged))
attr title "coord Y"
vector 5 Vntnet.vtn_node[1] coordZ:vector ETV
attr interpolationmode linear
attr recordingmode vector
attr source zCoord(mobilityPos(mobilityStateChanged))
attr title "coord Z"
vector 6 Vntnet.vtn_node[2] coordX:vector ETV
attr interpolationmode linear
attr recordingmode vector
attr source xCoord(mobilityPos(mobilityStateChanged))
attr title "coord X"
vector 7 Vntnet.vtn_node[2] coordY:vector ETV
attr interpolationmode linear
attr recordingmode vector
attr source yCoord(mobilityPos(mobilityStateChanged))
attr title "coord Y"
vector 8 Vntnet.vtn_node[2] coordZ:vector ETV
attr interpolationmode linear
attr recordingmode vector
attr source zCoord(mobilityPos(mobilityStateChanged))
attr title "coord Z"
vector 9 Vntnet.vtn_node[3] coordX:vector ETV
attr interpolationmode linear
attr recordingmode vector
attr source xCoord(mobilityPos(mobilityStateChanged))
attr title "coord X"
vector 10 Vntnet.vtn_node[3] coordY:vector ETV
attr interpolationmode linear
attr recordingmode vector
attr source yCoord(mobilityPos(mobilityStateChanged))
attr title "coord Y"
vector 11 Vntnet.vtn_node[3] coordZ:vector ETV
attr interpolationmode linear
attr recordingmode vector
attr source zCoord(mobilityPos(mobilityStateChanged))
attr title "coord Z"
vector 12 Vntnet.vtn_node[4] coordX:vector ETV
attr interpolationmode linear
attr recordingmode vector
attr source xCoord(mobilityPos(mobilityStateChanged))
attr title "coord X"
vector 13 Vntnet.vtn_node[4] coordY:vector ETV
attr interpolationmode linear
attr recordingmode vector
attr source yCoord(mobilityPos(mobilityStateChanged))
attr title "coord Y"
vector 14 Vntnet.vtn_node[4] coordZ:vector ETV
attr interpolationmode linear
attr recordingmode vector
attr source zCoord(mobilityPos(mobilityStateChanged))
attr title "coord Z"
vector 15 Vntnet.vtn_node[5] coordX:vector ETV
attr interpolationmode linear
attr recordingmode vector
attr source xCoord(mobilityPos(mobilityStateChanged))
attr title "coord X"
vector 16 Vntnet.vtn_node[5] coordY:vector ETV
attr interpolationmode linear
attr recordingmode vector
attr source yCoord(mobilityPos(mobilityStateChanged))
attr title "coord Y"
vector 17 Vntnet.vtn_node[5] coordZ:vector ETV
attr interpolationmode linear
attr recordingmode vector
attr source zCoord(mobilityPos(mobilityStateChanged))
attr title "coord Z"
vector 18 Vntnet.vtn_node[6] coordX:vector ETV
attr interpolationmode linear
attr recordingmode vector
attr source xCoord(mobilityPos(mobilityStateChanged))
attr title "coord X"
vector 19 Vntnet.vtn_node[6] coordY:vector ETV
attr interpolationmode linear
attr recordingmode vector
attr source yCoord(mobilityPos(mobilityStateChanged))
attr title "coord Y"
vector 20 Vntnet.vtn_node[6] coordZ:vector ETV
attr interpolationmode linear
attr recordingmode vector
attr source zCoord(mobilityPos(mobilityStateChanged))
attr title "coord Z"
vector 21 Vntnet.vtn_node[7] coordX:vector ETV
attr interpolationmode linear
attr recordingmode vector
attr source xCoord(mobilityPos(mobilityStateChanged))
attr title "coord X"
vector 22 Vntnet.vtn_node[7] coordY:vector ETV
attr interpolationmode linear
attr recordingmode vector
attr source yCoord(mobilityPos(mobilityStateChanged))
attr title "coord Y"
vector 23 Vntnet.vtn_node[7] coordZ:vector ETV
attr interpolationmode linear
attr recordingmode vector
attr source zCoord(mobilityPos(mobilityStateChanged))
attr title "coord Z"
vector 24 Vntnet.vtn_node[8] coordX:vector ETV
attr interpolationmode linear
attr recordingmode vector
attr source xCoord(mobilityPos(mobilityStateChanged))
attr title "coord X"
vector 25 Vntnet.vtn_node[8] coordY:vector ETV
attr interpolationmode linear
attr recordingmode vector
attr source yCoord(mobilityPos(mobilityStateChanged))
attr title "coord Y"
vector 26 Vntnet.vtn_node[8] coordZ:vector ETV
attr interpolationmode linear
attr recordingmode vector
attr source zCoord(mobilityPos(mobilityStateChanged))
attr title "coord Z"
vector 27 Vntnet.vtn_node[9] coordX:vector ETV
attr interpolationmode linear
attr recordingmode vector
attr source xCoord(mobilityPos(mobilityStateChanged))
attr title "coord X"
vector 28 Vntnet.vtn_node[9] coordY:vector ETV
attr interpolationmode linear
attr recordingmode vector
attr source yCoord(mobilityPos(mobilityStateChanged))
attr title "coord Y"
vector 29 Vntnet.vtn_node[9] coordZ:vector ETV
attr interpolationmode linear
attr recordingmode vector
attr source zCoord(mobilityPos(mobilityStateChanged))
attr title "coord Z"
vector 30 Vntnet.vtn_node[1].vtn[0] num_msg:vector ETV
attr recordingmode vector
attr title " num msg"
vector 31 Vntnet.vtn_node[2].vtn[0] num_msg:vector ETV
attr recordingmode vector
attr title " num msg"
vector 32 Vntnet.vtn_node[3].vtn[0] num_msg:vector ETV
attr recordingmode vector
attr title " num msg"
vector 33 Vntnet.vtn_node[4].vtn[0] num_msg:vector ETV
attr recordingmode vector
attr title " num msg"
vector 34 Vntnet.vtn_node[5].vtn[0] num_msg:vector ETV
attr recordingmode vector
attr title " num msg"
vector 35 Vntnet.vtn_node[6].vtn[0] num_msg:vector ETV
attr recordingmode vector
attr title " num msg"
vector 36 Vntnet.vtn_node[7].vtn[0] num_msg:vector ETV
attr recordingmode vector
attr title " num msg"
vector 37 Vntnet.vtn_node[8].vtn[0] num_msg:vector ETV
attr recordingmode vector
attr title " num msg"
vector 38 Vntnet.vtn_node[9].vtn[0] num_msg:vector ETV
attr recordingmode vector
attr title " num msg"
vector 39 Vntnet.vtn_node[0].vtn[0] num_msg:vector ETV
attr recordingmode vector
attr title " num msg"
vector 40 Vntnet.vtn_node[2].vtn[1] num_msg:vector ETV
attr recordingmode vector
attr title " num msg"
vector 41 Vntnet.vtn_node[3].vtn[1] num_msg:vector ETV
attr recordingmode vector
attr title " num msg"
vector 42 Vntnet.vtn_node[4].vtn[1] num_msg:vector ETV
attr recordingmode vector
attr title " num msg"
vector 43 Vntnet.vtn_node[5].vtn[1] num_msg:vector ETV
attr recordingmode vector
attr title " num msg"
vector 44 Vntnet.vtn_node[6].vtn[1] num_msg:vector ETV
attr recordingmode vector
attr title " num msg"
vector 45 Vntnet.vtn_node[7].vtn[1] num_msg:vector ETV
attr recordingmode vector
attr title " num msg"
vector 46 Vntnet.vtn_node[8].vtn[1] num_msg:vector ETV
attr recordingmode vector
attr title " num msg"
vector 47 Vntnet.vtn_node[9].vtn[1] num_msg:vector ETV
attr recordingmode vector
attr title " num msg"
vector 48 Vntnet.vtn_node[0].vtn[1] num_msg:vector ETV
attr recordingmode vector
attr title " num msg"
vector 49 Vntnet.vtn_node[1].vtn[1] num_msg:vector ETV
attr recordingmode vector
attr title " num msg"
vector 50 Vntnet.vtn_node[3].vtn[2] num_msg:vector ETV
attr recordingmode vector
attr title " num msg"
vector 51 Vntnet.vtn_node[4].vtn[2] num_msg:vector ETV
attr recordingmode vector
attr title " num msg"
vector 52 Vntnet.vtn_node[5].vtn[2] num_msg:vector ETV
attr recordingmode vector
attr title " num msg"
vector 53 Vntnet.vtn_node[6].vtn[2] num_msg:vector ETV
attr recordingmode vector
attr title " num msg"
vector 54 Vntnet.vtn_node[7].vtn[2] num_msg:vector ETV
attr recordingmode vector
attr title " num msg"
vector 55 Vntnet.vtn_node[8].vtn[2] num_msg:vector ETV
attr recordingmode vector
attr title " num msg"
vector 56 Vntnet.vtn_node[9].vtn[2] num_msg:vector ETV
attr recordingmode vector
attr title " num msg"
vector 57 Vntnet.vtn_node[0].vtn[2] num_msg:vector ETV
attr recordingmode vector
attr title " num msg"
vector 58 Vntnet.vtn_node[1].vtn[2] num_msg:vector ETV
attr recordingmode vector
attr title " num msg"
vector 59 Vntnet.vtn_node[2].vtn[2] num_msg:vector ETV
attr recordingmode vector
attr title " num msg"
vector 60 Vntnet.vtn_node[4].vtn[3] num_msg:vector ETV
attr recordingmode vector
attr title " num msg"
vector 61 Vntnet.vtn_node[5].vtn[3] num_msg:vector ETV
attr recordingmode vector
attr title " num msg"
vector 62 Vntnet.vtn_node[6].vtn[3] num_msg:vector ETV
attr recordingmode vector
attr title " num msg"
vector 63 Vntnet.vtn_node[7].vtn[3] num_msg:vector ETV
attr recordingmode vector
attr title " num msg"
vector 64 Vntnet.vtn_node[8].vtn[3] num_msg:vector ETV
attr recordingmode vector
attr title " num msg"
vector 65 Vntnet.vtn_node[9].vtn[3] num_msg:vector ETV
attr recordingmode vector
attr title " num msg"
vector 66 Vntnet.vtn_node[0].vtn[3] num_msg:vector ETV
attr recordingmode vector
attr title " num msg"
vector 67 Vntnet.vtn_node[1].vtn[3] num_msg:vector ETV
attr recordingmode vector
attr title " num msg"
vector 68 Vntnet.vtn_node[2].vtn[3] num_msg:vector ETV
attr recordingmode vector
attr title " num msg"
vector 69 Vntnet.vtn_node[3].vtn[3] num_msg:vector ETV
attr recordingmode vector
attr title " num msg"
vector 70 Vntnet.vtn_node[5].vtn[4] num_msg:vector ETV
attr recordingmode vector
attr title " num msg"
vector 71 Vntnet.vtn_node[6].vtn[4] num_msg:vector ETV
attr recordingmode vector
attr title " num msg"
vector 72 Vntnet.vtn_node[7].vtn[4] num_msg:vector ETV
attr recordingmode vector
attr title " num msg"
vector 73 Vntnet.vtn_node[8].vtn[4] num_msg:vector ETV
attr recordingmode vector
attr title " num msg"
vector 74 Vntnet.vtn_node[9].vtn[4] num_msg:vector ETV
attr recordingmode vector
attr title " num msg"
vector 75 Vntnet.vtn_node[0].vtn[4] num_msg:vector ETV
attr recordingmode vector
attr title " num msg"
vector 76 Vntnet.vtn_node[1].vtn[4] num_msg:vector ETV
attr recordingmode vector
attr title " num msg"
vector 77 Vntnet.vtn_node[2].vtn[4] num_msg:vector ETV
attr recordingmode vector
attr title " num msg"
vector 78 Vntnet.vtn_node[3].vtn[4] num_msg:vector ETV
attr recordingmode vector
attr title " num msg"
vector 79 Vntnet.vtn_node[4].vtn[4] num_msg:vector ETV
attr recordingmode vector
attr title " num msg"
vector 80 Vntnet.vtn_node[6].vtn[5] num_msg:vector ETV
attr recordingmode vector
attr title " num msg"
vector 81 Vntnet.vtn_node[7].vtn[5] num_msg:vector ETV
attr recordingmode vector
attr title " num msg"
vector 82 Vntnet.vtn_node[8].vtn[5] num_msg:vector ETV
attr recordingmode vector
attr title " num msg"
vector 83 Vntnet.vtn_node[9].vtn[5] num_msg:vector ETV
attr recordingmode vector
attr title " num msg"
vector 84 Vntnet.vtn_node[0].vtn[5] num_msg:vector ETV
attr recordingmode vector
attr title " num msg"
vector 85 Vntnet.vtn_node[1].vtn[5] num_msg:vector ETV
attr recordingmode vector
attr title " num msg"
vector 86 Vntnet.vtn_node[2].vtn[5] num_msg:vector ETV
attr recordingmode vector
attr title " num msg"
vector 87 Vntnet.vtn_node[3].vtn[5] num_msg:vector ETV
attr recordingmode vector
attr title " num msg"
vector 88 Vntnet.vtn_node[4].vtn[5] num_msg:vector ETV
attr recordingmode vector
attr title " num msg"
vector 89 Vntnet.vtn_node[5].vtn[5] num_msg:vector ETV
attr recordingmode vector
attr title " num msg"
vector 90 Vntnet.vtn_node[7].vtn[6] num_msg:vector ETV
attr recordingmode vector
attr title " num msg"
vector 91 Vntnet.vtn_node[8].vtn[6] num_msg:vector ETV
attr recordingmode vector
attr title " num msg"
vector 92 Vntnet.vtn_node[9].vtn[6] num_msg:vector ETV
attr recordingmode vector
attr title " num msg"
vector 93 Vntnet.vtn_node[0].vtn[6] num_msg:vector ETV
attr recordingmode vector
attr title " num msg"
vector 94 Vntnet.vtn_node[1].vtn[6] num_msg:vector ETV
attr recordingmode vector
attr title " num msg"
vector 95 Vntnet.vtn_node[2].vtn[6] num_msg:vector ETV
attr recordingmode vector
attr title " num msg"
vector 96 Vntnet.vtn_node[3].vtn[6] num_msg:vector ETV
attr recordingmode vector
attr title " num msg"
vector 97 Vntnet.vtn_node[4].vtn[6] num_msg:vector ETV
attr recordingmode vector
attr title " num msg"
vector 98 Vntnet.vtn_node[5].vtn[6] num_msg:vector ETV
attr recordingmode vector
attr title " num msg"
vector 99 Vntnet.vtn_node[6].vtn[6] num_msg:vector ETV
attr recordingmode vector
attr title " num msg"
vector 100 Vntnet.vtn_node[8].vtn[7] num_msg:vector ETV
attr recordingmode vector
attr title " num msg"
vector 101 Vntnet.vtn_node[9].vtn[7] num_msg:vector ETV
attr recordingmode vector
attr title " num msg"
vector 102 Vntnet.vtn_node[0].vtn[7] num_msg:vector ETV
attr recordingmode vector
attr title " num msg"
vector 103 Vntnet.vtn_node[1].vtn[7] num_msg:vector ETV
attr recordingmode vector
attr title " num msg"
vector 104 Vntnet.vtn_node[2].vtn[7] num_msg:vector ETV
attr recordingmode vector
attr title " num msg"
vector 105 Vntnet.vtn_node[3].vtn[7] num_msg:vector ETV
attr recordingmode vector
attr title " num msg"
vector 106 Vntnet.vtn_node[4].vtn[7] num_msg:vector ETV
attr recordingmode vector
attr title " num msg"
vector 107 Vntnet.vtn_node[5].vtn[7] num_msg:vector ETV
attr recordingmode vector
attr title " num msg"
vector 108 Vntnet.vtn_node[6].vtn[7] num_msg:vector ETV
attr recordingmode vector
attr title " num msg"
vector 109 Vntnet.vtn_node[7].vtn[7] num_msg:vector ETV
attr recordingmode vector
attr title " num msg"
vector 110 Vntnet.vtn_node[9].vtn[8] num_msg:vector ETV
attr recordingmode vector
attr title " num msg"
vector 111 Vntnet.vtn_node[0].vtn[8] num_msg:vector ETV
attr recordingmode vector
attr title " num msg"
vector 112 Vntnet.vtn_node[1].vtn[8] num_msg:vector ETV
attr recordingmode vector
attr title " num msg"
vector 113 Vntnet.vtn_node[2].vtn[8] num_msg:vector ETV
attr recordingmode vector
attr title " num msg"
vector 114 Vntnet.vtn_node[3].vtn[8] num_msg:vector ETV
attr recordingmode vector
attr title " num msg"
vector 115 Vntnet.vtn_node[4].vtn[8] num_msg:vector ETV
attr recordingmode vector
attr title " num msg"
vector 116 Vntnet.vtn_node[5].vtn[8] num_msg:vector ETV
attr recordingmode vector
attr title " num msg"
vector 117 Vntnet.vtn_node[6].vtn[8] num_msg:vector ETV
attr recordingmode vector
attr title " num msg"
vector 118 Vntnet.vtn_node[7].vtn[8] num_msg:vector ETV
attr recordingmode vector
attr title " num msg"
vector 119 Vntnet.vtn_node[8].vtn[8] num_msg:vector ETV
attr recordingmode vector
attr title " num msg"
0	0	0	100
0	0	0	100
0	1	0.1	101
0	101	0.2	102
0	201	0.3	103
0	301	0.4	104
0	402	0.5	105
0	503	0.6	106
0	603	0.7	107
0	706	0.8	108
0	806	0.9	109
0	908	1	110
0	1008	1.1	111
0	1110	1.2	112
0	1210	1.3	113
0	1311	1.4	114
0	1411	1.5	115
0	1511	1.6	116
0	1614	1.7	117
0	1718	1.8	118
0	1818	1.9	119
0	1918	2	120
0	2018	2.1	121
0	2119	2.2	122
0	2220	2.3	123
0	2320	2.4	124
0	2420	2.5	125
0	2521	2.6	126
0	2622	2.7	127
0	2723	2.8	128
0	2823	2.9	129
0	2924	3	130
0	3024	3.1	131
0	3124	3.2	132
0	3224	3.3	133
0	3324	3.4	134
0	3424	3.5	135
0	3526	3.6	136
0	3627	3.7	137
0	3727	3.8	138
0	3827	3.9	139
0	3927	4	140
0	4029	4.1	141
0	4129	4.2	142
0	4229	4.3	143
0	4329	4.4	144
0	4429	4.5	145
0	4530	4.6	146
0	4631	4.7	147
0	4732	4.8	148
0	4834	4.9	149
0	4935	5	150
0	5036	5.1	150
0	5137	5.2	150
0	5237	5.3	150
0	5337	5.4	150
0	5437	5.5	150
0	5537	5.6	150
0	5639	5.7	150
0	5739	5.8	150
0	5839	5.9	150
0	5942	6	150
0	6043	6.1	150
0	6144	6.2	150
0	6244	6.3	150
0	6344	6.4	150
0	6446	6.5	150
0	6547	6.6	150
0	6647	6.7	150
0	6748	6.8	150
0	6851	6.9	150
0	6951	7	150
0	7051	7.1	150
0	7152	7.2	150
0	7252	7.3	150
0	7353	7.4	150
0	7454	7.5	150
0	7554	7.6	150
0	7655	7.7	150
0	7755	7.8	150
0	7856	7.9	150
0	7956	8	150
0	8057	8.1	150
0	8157	8.2	150
0	8258	8.3	150
0	8358	8.4	150
0	8459	8.5	150
0	8559	8.6	150
0	8659	8.7	150
0	8759	8.8	150
0	8859	8.9	150
0	8961	9	150
0	9061	9.1	150
0	9162	9.2	150
0	9264	9.3	150
0	9366	9.4	150
0	9467	9.5	150
0	9567	9.6	150
0	9668	9.7	150
0	9769	9.8	150
0	9869	9.9	150
0	9970	10	150
0	10070	10.1	150
0	10170	10.2	150
0	10270	10.3	150
0	10370	10.4	150
0	10471	10.5	150
0	10572	10.6	150
0	10673	10.7	150
0	10773	10.8	150
0	10875	10.9	150
0	10978	11	150
0	11078	11.1	150
0	11179	11.2	150
0	11279	11.3	150
0	11378	11.395918403286	150
0	11380	11.4	150
0	11480	11.495918403286	150
0	11481	11.5	150
0	11580	11.595918403286	150
0	11581	11.6	150
0	11680	11.695918403286	150
0	11681	11.7	150
0	11781	11.795918403286	150
0	11782	11.8	150
0	11883	11.895918403286	150
0	11883	11.9	150
0	11984	11.995918403286	150
0	11984	12	150
0	12084	12.095918403286	150
0	12084	12.1	150
0	12184	12.195918403286	150
0	12184	12.2	150
0	12284	12.295918403286	150
0	12284	12.3	150
0	12386	12.395918403286	150
0	12386	12.4	150
0	12488	12.495918403286	150
0	12488	12.5	150
0	12589	12.595918403286	150
0	12589	12.6	150
0	12690	12.695918403286	150
0	12690	12.7	150
0	12792	12.795918403286	150
0	12792	12.8	150
0	12892	12.895918403286	150
0	12892	12.9	150
0	12992	12.995918403286	150
0	12992	13	150
0	13092	13.095918403286	150
0	13092	13.1	150
0	13192	13.195918403286	150
0	13192	13.2	150
0	13293	13.295918403286	150
0	13293	13.3	150
0	13393	13.395918403286	150
0	13393	13.4	150
0	13494	13.495918403286	150
0	13494	13.5	150
0	13594	13.595918403286	150
0	13594	13.6	150
0	13694	13.695918403286	150
0	13694	13.7	150
0	13796	13.795918403286	150
0	13796	13.8	150
0	13896	13.895918403286	150
0	13896	13.9	150
0	13996	13.995918403286	150
0	13996	14	150
0	14097	14.095918403286	150
0	14097	14.1	150
0	14197	14.195918403286	150
0	14197	14.2	150
1	0	0	200
1	0	0	200
1	1	0.1	200
1	101	0.2	200
1	201	0.3	200
1	301	0.4	200
1	402	0.5	200
1	503	0.6	200
1	603	0.7	200
1	706	0.8	200
1	806	0.9	200
1	908	1	200
1	1008	1.1	200
1	1110	1.2	200
1	1210	1.3	200
1	1311	1.4	200
1	1411	1.5	200
1	1511	1.6	200
1	1614	1.7	200
1	1718	1.8	200
1	1818	1.9	200
1	1918	2	200
1	2018	2.1	200
1	2119	2.2	200
1	2220	2.3	200
1	2320	2.4	200
1	2420	2.5	200
1	2521	2.6	200
1	2622	2.7	200
1	2723	2.8	200
1	2823	2.9	200
1	2924	3	200
1	3024	3.1	200
1	3124	3.2	200
1	3224	3.3	200
1	3324	3.4	200
1	3424	3.5	200
1	3526	3.6	200
1	3627	3.7	200
1	3727	3.8	200
1	3827	3.9	200
1	3927	4	200
1	4029	4.1	200
1	4129	4.2	200
1	4229	4.3	200
1	4329	4.4	200
1	4429	4.5	200
1	4530	4.6	200
1	4631	4.7	200
1	4732	4.8	200
1	4834	4.9	200
1	4935	5	200
1	5036	5.1	200
1	5137	5.2	200
1	5237	5.3	200
1	5337	5.4	200
1	5437	5.5	200
1	5537	5.6	200
1	5639	5.7	200
1	5739	5.8	200
1	5839	5.9	200
1	5942	6	200
1	6043	6.1	200
1	6144	6.2	200
1	6244	6.3	200
1	6344	6.4	200
1	6446	6.5	200
1	6547	6.6	200
1	6647	6.7	200
1	6748	6.8	200
1	6851	6.9	200
1	6951	7	200
1	7051	7.1	200
1	7152	7.2	200
1	7252	7.3	200
1	7353	7.4	200
1	7454	7.5	200
1	7554	7.6	200
1	7655	7.7	200
1	7755	7.8	200
1	7856	7.9	200
1	7956	8	200
1	8057	8.1	200
1	8157	8.2	200
1	8258	8.3	200
1	8358	8.4	200
1	8459	8.5	200
1	8559	8.6	200
1	8659	8.7	200
1	8759	8.8	200
1	8859	8.9	200
1	8961	9	200
1	9061	9.1	200
1	9162	9.2	200
1	9264	9.3	200
1	9366	9.4	200
1	9467	9.5	200
1	9567	9.6	200
1	9668	9.7	200
1	9769	9.8	200
1	9869	9.9	200
1	9970	10	200
1	10070	10.1	200
1	10170	10.2	200
1	10270	10.3	200
1	10370	10.4	200
1	10471	10.5	200
1	10572	10.6	200
1	10673	10.7	200
1	10773	10.8	200
1	10875	10.9	200
1	10978	11	200
1	11078	11.1	200
1	11179	11.2	200
1	11279	11.3	200
1	11378	11.395918403286	200
1	11380	11.4	200.04081596714
1	11480	11.495918403286	201
1	11481	11.5	201.04081596714
1	11580	11.595918403286	202
1	11581	11.6	202.04081596714
1	11680	11.695918403286	203
1	11681	11.7	203.04081596714
1	11781	11.795918403286	204
1	11782	11.8	204.04081596714
1	11883	11.895918403286	205
1	11883	11.9	205.04081596714
1	11984	11.995918403286	206
1	11984	12	206.04081596714
1	12084	12.095918403286	207
1	12084	12.1	207.04081596714
1	12184	12.195918403286	208
1	12184	12.2	208.04081596714
1	12284	12.295918403286	209
1	12284	12.3	209.04081596714
1	12386	12.395918403286	210
1	12386	12.4	210.04081596714
1	12488	12.495918403286	211
1	12488	12.5	211.04081596714
1	12589	12.595918403286	212
1	12589	12.6	212.04081596714
1	12690	12.695918403286	213
1	12690	12.7	213.04081596714
1	12792	12.795918403286	214
1	12792	12.8	214.04081596714
1	12892	12.895918403286	215
1	12892	12.9	215.04081596714
1	12992	12.995918403286	216
1	12992	13	216.04081596714
1	13092	13.095918403286	217
1	13092	13.1	217.04081596714
1	13192	13.195918403286	218
1	13192	13.2	218.04081596714
1	13293	13.295918403286	219
1	13293	13.3	219.04081596714
1	13393	13.395918403286	220
1	13393	13.4	220.04081596714
1	13494	13.495918403286	221
1	13494	13.5	221.04081596714
1	13594	13.595918403286	222
1	13594	13.6	222.04081596714
1	13694	13.695918403286	223
1	13694	13.7	223.04081596714
1	13796	13.795918403286	224
1	13796	13.8	224.04081596714
1	13896	13.895918403286	225
1	13896	13.9	225.04081596714
1	13996	13.995918403286	226
1	13996	14	226.04081596714
1	14097	14.095918403286	227
1	14097	14.1	227.04081596714
1	14197	14.195918403286	228
1	14197	14.2	228.04081596714
2	0	0	0
2	0	0	0
2	1	0.1	0
2	101	0.2	0
2	201	0.3	0
2	301	0.4	0
2	402	0.5	0
2	503	0.6	0
2	603	0.7	0
2	706	0.8	0
2	806	0.9	0
2	908	1	0
2	1008	1.1	0
2	1110	1.2	0
2	1210	1.3	0
2	1311	1.4	0
2	1411	1.5	0
2	1511	1.6	0
2	1614	1.7	0
2	1718	1.8	0
2	1818	1.9	0
2	1918	2	0
2	2018	2.1	0
2	2119	2.2	0
2	2220	2.3	0
2	2320	2.4	0
2	2420	2.5	0
2	2521	2.6	0
2	2622	2.7	0
2	2723	2.8	0
2	2823	2.9	0
2	2924	3	0
2	3024	3.1	0
2	3124	3.2	0
2	3224	3.3	0
2	3324	3.4	0
2	3424	3.5	0
2	3526	3.6	0
2	3627	3.7	0
2	3727	3.8	0
2	3827	3.9	0
2	3927	4	0
2	4029	4.1	0
2	4129	4.2	0
2	4229	4.3	0
2	4329	4.4	0
2	4429	4.5	0
2	4530	4.6	0
2	4631	4.7	0
2	4732	4.8	0
2	4834	4.9	0
2	4935	5	0
2	5036	5.1	0
2	5137	5.2	0
2	5237	5.3	0
2	5337	5.4	0
2	5437	5.5	0
2	5537	5.6	0
2	5639	5.7	0
2	5739	5.8	0
2	5839	5.9	0
2	5942	6	0
2	6043	6.1	0
2	6144	6.2	0
2	6244	6.3	0
2	6344	6.4	0
2	6446	6.5	0
2	6547	6.6	0
2	6647	6.7	0
2	6748	6.8	0
2	6851	6.9	0
2	6951	7	0
2	7051	7.1	0
2	7152	7.2	0
2	7252	7.3	0
2	7353	7.4	0
2	7454	7.5	0
2	7554	7.6	0
2	7655	7.7	0
2	7755	7.8	0
2	7856	7.9	0
2	7956	8	0
2	8057	8.1	0
2	8157	8.2	0
2	8258	8.3	0
2	8358	8.4	0
2	8459	8.5	0
2	8559	8.6	0
2	8659	8.7	0
2	8759	8.8	0
2	8859	8.9	0
2	8961	9	0
2	9061	9.1	0
2	9162	9.2	0
2	9264	9.3	0
2	9366	9.4	0
2	9467	9.5	0
2	9567	9.6	0
2	9668	9.7	0
2	9769	9.8	0
2	9869	9.9	0
2	9970	10	0
2	10070	10.1	0
2	10170	10.2	0
2	10270	10.3	0
2	10370	10.4	0
2	10471	10.5	0
2	10572	10.6	0
2	10673	10.7	0
2	10773	10.8	0
2	10875	10.9	0
2	10978	11	0
2	11078	11.1	0
2	11179	11.2	0
2	11279	11.3	0
2	11378	11.395918403286	0
2	11380	11.4	0
2	11480	11.495918403286	0
2	11481	11.5	0
2	11580	11.595918403286	0
2	11581	11.6	0
2	11680	11.695918403286	0
2	11681	11.7	0
2	11781	11.795918403286	0
2	11782	11.8	0
2	11883	11.895918403286	0
2	11883	11.9	0
2	11984	11.995918403286	0
2	11984	12	0
2	12084	12.095918403286	0
2	12084	12.1	0
2	12184	12.195918403286	0
2	12184	12.2	0
2	12284	12.295918403286	0
2	12284	12.3	0
2	12386	12.395918403286	0
2	12386	12.4	0
2	12488	12.495918403286	0
2	12488	12.5	0
2	12589	12.595918403286	0
2	12589	12.6	0
2	12690	12.695918403286	0
2	12690	12.7	0
2	12792	12.795918403286	0
2	12792	12.8	0
2	12892	12.895918403286	0
2	12892	12.9	0
2	12992	12.995918403286	0
2	12992	13	0
2	13092	13.095918403286	0
2	13092	13.1	0
2	13192	13.195918403286	0
2	13192	13.2	0
2	13293	13.295918403286	0
2	13293	13.3	0
2	13393	13.395918403286	0
2	13393	13.4	0
2	13494	13.495918403286	0
2	13494	13.5	0
2	13594	13.595918403286	0
2	13594	13.6	0
2	13694	13.695918403286	0
2	13694	13.7	0
2	13796	13.795918403286	0
2	13796	13.8	0
2	13896	13.895918403286	0
2	13896	13.9	0
2	13996	13.995918403286	0
2	13996	14	0
2	14097	14.095918403286	0
2	14097	14.1	0
2	14197	14.195918403286	0
2	14197	14.2	0
3	0	0	200
3	0	0	200
3	1	0.1	200
3	101	0.2	200
3	201	0.3	200
3	301	0.4	200
3	402	0.5	200
3	503	0.6	200
3	603	0.7	200
3	706	0.8	200
3	806	0.9	200
3	908	1	200
3	1008	1.1	200
3	1110	1.2	200
3	1210	1.3	200
3	1311	1.4	200
3	1411	1.5	200
3	1511	1.6	200
3	1614	1.7	200
3	1718	1.8	200
3	1818	1.9	200
3	1918	2	200
3	2018	2.1	200
3	2119	2.2	200
3	2220	2.3	200
3	2320	2.4	200
3	2420	2.5	200
3	2521	2.6	200
3	2622	2.7	200
3	2723	2.8	200
3	2823	2.9	200
3	2924	3	200
3	3024	3.1	200
3	3124	3.2	200
3	3224	3.3	200
3	3324	3.4	200
3	3424	3.5	200
3	3526	3.6	200
3	3627	3.7	200
3	3727	3.8	200
3	3827	3.9	200
3	3927	4	200
3	4029	4.1	200
3	4129	4.2	200
3	4229	4.3	200
3	4329	4.4	200
3	4429	4.5	200
3	4530	4.6	200
3	4631	4.7	200
3	4732	4.8	200
3	4834	4.9	200
3	4935	5	200
3	5036	5.1	199
3	5137	5.2	198
3	5237	5.3	197
3	5337	5.4	196
3	5437	5.5	195
3	5537	5.6	194
3	5639	5.7	193
3	5739	5.8	192
3	5839	5.9	191
3	5942	6	190
3	6043	6.1	189
3	6144	6.2	188
3	6244	6.3	187
3	6344	6.4	186
3	6446	6.5	185
3	6547	6.6	184
3	6647	6.7	183
3	6748	6.8	182
3	6851	6.9	181
3	6951	7	180
3	7051	7.1	179
3	7152	7.2	178
3	7252	7.3	177
3	7353	7.4	176
3	7454	7.5	175
3	7554	7.6	174
3	7655	7.7	173
3	7755	7.8	172
3	7856	7.9	171
3	7956	8	170
3	8057	8.1	169
3	8157	8.2	168
3	8258	8.3	167
3	8358	8.4	166
3	8459	8.5	165
3	8559	8.6	164
3	8659	8.7	163
3	8759	8.8	162
3	8859	8.9	161
3	8961	9	160
3	9061	9.1	159
3	9162	9.2	158
3	9264	9.3	157
3	9366	9.4	156
3	9467	9.5	155
3	9567	9.6	154
3	9668	9.7	153
3	9769	9.8	152
3	9869	9.9	151
3	9970	10	150
3	10070	10.1	150
3	10170	10.2	150
3	10270	10.3	150
3	10370	10.4	150
3	10471	10.5	150
3	10572	10.6	150
3	10673	10.7	150
3	10773	10.8	150
3	10875	10.9	150
3	10978	11	150
3	11078	11.1	150
3	11179	11.2	150
3	11279	11.3	150
3	11380	11.4	150
3	11481	11.5	150
3	11581	11.6	150
3	11681	11.7	150
3	11782	11.8	150
3	11883	11.9	150
3	11984	12	150
3	12084	12.1	150
3	12184	12.2	150
3	12284	12.3	150
3	12386	12.4	150
3	12488	12.5	150
3	12589	12.6	150
3	12690	12.7	150
3	12792	12.8	150
3	12892	12.9	150
3	12992	13	150
3	13092	13.1	150
3	13192	13.2	150
3	13293	13.3	150
3	13393	13.4	150
3	13494	13.5	150
3	13594	13.6	150
3	13694	13.7	150
3	13796	13.8	150
3	13896	13.9	150
3	13996	14	150
3	14097	14.1	150
3	14197	14.2	150
4	0	0	200
4	0	0	200
4	1	0.1	201
4	101	0.2	202
4	201	0.3	203
4	301	0.4	204
4	402	0.5	205
4	503	0.6	206
4	603	0.7	207
4	706	0.8	208
4	806	0.9	209
4	908	1	210
4	1008	1.1	211
4	1110	1.2	212
4	1210	1.3	213
4	1311	1.4	214
4	1411	1.5	215
4	1511	1.6	216
4	1614	1.7	217
4	1718	1.8	218
4	1818	1.9	219
4	1918	2	220
4	2018	2.1	221
4	2119	2.2	222
4	2220	2.3	223
4	2320	2.4	224
4	2420	2.5	225
4	2521	2.6	226
4	2622	2.7	227
4	2723	2.8	228
4	2823	2.9	229
4	2924	3	230
4	3024	3.1	231
4	3124	3.2	232
4	3224	3.3	233
4	3324	3.4	234
4	3424	3.5	235
4	3526	3.6	236
4	3627	3.7	237
4	3727	3.8	238
4	3827	3.9	239
4	3927	4	240
4	4029	4.1	241
4	4129	4.2	242
4	4229	4.3	243
4	4329	4.4	244
4	4429	4.5	245
4	4530	4.6	246
4	4631	4.7	247
4	4732	4.8	248
4	4834	4.9	249
4	4935	5	250
4	5036	5.1	250
4	5137	5.2	250
4	5237	5.3	250
4	5337	5.4	250
4	5437	5.5	250
4	5537	5.6	250
4	5639	5.7	250
4	5739	5.8	250
4	5839	5.9	250
4	5942	6	250
4	6043	6.1	250
4	6144	6.2	250
4	6244	6.3	250
4	6344	6.4	250
4	6446	6.5	250
4	6547	6.6	250
4	6647	6.7	250
4	6748	6.8	250
4	6851	6.9	250
4	6951	7	250
4	7051	7.1	250
4	7152	7.2	250
4	7252	7.3	250
4	7353	7.4	250
4	7454	7.5	250
4	7554	7.6	250
4	7655	7.7	250
4	7755	7.8	250
4	7856	7.9	250
4	7956	8	250
4	8057	8.1	250
4	8157	8.2	250
4	8258	8.3	250
4	8358	8.4	250
4	8459	8.5	250
4	8559	8.6	250
4	8659	8.7	250
4	8759	8.8	250
4	8859	8.9	250
4	8961	9	250
4	9061	9.1	250
4	9162	9.2	250
4	9264	9.3	250
4	9366	9.4	250
4	9467	9.5	250
4	9567	9.6	250
4	9668	9.7	250
4	9769	9.8	250
4	9869	9.9	250
4	9970	10	250
4	10070	10.1	249
4	10170	10.2	248
4	10270	10.3	247
4	10370	10.4	246
4	10471	10.5	245
4	10572	10.6	244
4	10673	10.7	243
4	10773	10.8	242
4	10875	10.9	241
4	10978	11	240
4	11078	11.1	239
4	11179	11.2	238
4	11279	11.3	237
4	11380	11.4	236
4	11481	11.5	235
4	11581	11.6	234
4	11681	11.7	233
4	11782	11.8	232
4	11883	11.9	231
4	11984	12	230
4	12084	12.1	229
4	12184	12.2	228
4	12284	12.3	227
4	12386	12.4	226
4	12488	12.5	225
4	12589	12.6	224
4	12690	12.7	223
4	12792	12.8	222
4	12892	12.9	221
4	12992	13	220
4	13092	13.1	219
4	13192	13.2	218
4	13293	13.3	217
4	13393	13.4	216
4	13494	13.5	215
4	13594	13.6	214
4	13694	13.7	213
4	13796	13.8	212
4	13896	13.9	211
4	13996	14	210
4	14097	14.1	209
4	14197	14.2	208
5	0	0	0
5	0	0	0
5	1	0.1	0
5	101	0.2	0
5	201	0.3	0
5	301	0.4	0
5	402	0.5	0
5	503	0.6	0
5	603	0.7	0
5	706	0.8	0
5	806	0.9	0
5	908	1	0
5	1008	1.1	0
5	1110	1.2	0
5	1210	1.3	0
5	1311	1.4	0
5	1411	1.5	0
5	1511	1.6	0
5	1614	1.7	0
5	1718	1.8	0
5	1818	1.9	0
5	1918	2	0
5	2018	2.1	0
5	2119	2.2	0
5	2220	2.3	0
5	2320	2.4	0
5	2420	2.5	0
5	2521	2.6	0
5	2622	2.7	0
5	2723	2.8	0
5	2823	2.9	0
5	2924	3	0
5	3024	3.1	0
5	3124	3.2	0
5	3224	3.3	0
5	3324	3.4	0
5	3424	3.5	0
5	3526	3.6	0
5	3627	3.7	0
5	3727	3.8	0
5	3827	3.9	0
5	3927	4	0
5	4029	4.1	0
5	4129	4.2	0
5	4229	4.3	0
5	4329	4.4	0
5	4429	4.5	0
5	4530	4.6	0
5	4631	4.7	0
5	4732	4.8	0
5	4834	4.9	0
5	4935	5	0
5	5036	5.1	0
5	5137	5.2	0
5	5237	5.3	0
5	5337	5.4	0
5	5437	5.5	0
5	5537	5.6	0
5	5639	5.7	0
5	5739	5.8	0
5	5839	5.9	0
5	5942	6	0
5	6043	6.1	0
5	6144	6.2	0
5	6244	6.3	0
5	6344	6.4	0
5	6446	6.5	0
5	6547	6.6	0
5	6647	6.7	0
5	6748	6.8	0
5	6851	6.9	0
5	6951	7	0
5	7051	7.1	0
5	7152	7.2	0
5	7252	7.3	0
5	7353	7.4	0
5	7454	7.5	0
5	7554	7.6	0
5	7655	7.7	0
5	7755	7.8	0
5	7856	7.9	0
5	7956	8	0
5	8057	8.1	0
5	8157	8.2	0
5	8258	8.3	0
5	8358	8.4	0
5	8459	8.5	0
5	8559	8.6	0
5	8659	8.7	0
5	8759	8.8	0
5	8859	8.9	0
5	8961	9	0
5	9061	9.1	0
5	9162	9.2	0
5	9264	9.3	0
5	9366	9.4	0
5	9467	9.5	0
5	9567	9.6	0
5	9668	9.7	0
5	9769	9.8	0
5	9869	9.9	0
5	9970	10	0
5	10070	10.1	0
5	10170	10.2	0
5	10270	10.3	0
5	10370	10.4	0
5	10471	10.5	0
5	10572	10.6	0
5	10673	10.7	0
5	10773	10.8	0
5	10875	10.9	0
5	10978	11	0
5	11078	11.1	0
5	11179	11.2	0
5	11279	11.3	0
5	11380	11.4	0
5	11481	11.5	0
5	11581	11.6	0
5	11681	11.7	0
5	11782	11.8	0
5	11883	11.9	0
5	11984	12	0
5	12084	12.1	0
5	12184	12.2	0
5	12284	12.3	0
5	12386	12.4	0
5	12488	12.5	0
5	12589	12.6	0
5	12690	12.7	0
5	12792	12.8	0
5	12892	12.9	0
5	12992	13	0
5	13092	13.1	0
5	13192	13.2	0
5	13293	13.3	0
5	13393	13.4	0
5	13494	13.5	0
5	13594	13.6	0
5	13694	13.7	0
5	13796	13.8	0
5	13896	13.9	0
5	13996	14	0
5	14097	14.1	0
5	14197	14.2	0
6	0	0	90.699770324863
6	0	0	90.699770324863
6	1	0.1	90.807532414926
6	101	0.2	90.915294504988
6	201	0.3	91.02305659505
6	301	0.4	91.130818685112
6	402	0.5	91.238580775175
6	503	0.6	91.346342865237
6	603	0.7	91.454104955299
6	706	0.8	91.561867045361
6	806	0.9	91.669629135424
6	908	1	91.777391225486
6	1008	1.1	91.885153315548
6	1110	1.2	91.99291540561
6	1210	1.3	92.100677495673
6	1311	1.4	92.208439585735
6	1411	1.5	92.316201675797
6	1511	1.6	92.423963765859
6	1614	1.7	92.531725855922
6	1718	1.8	92.639487945984
6	1818	1.9	92.747250036046
6	1918	2	92.855012126108
6	2018	2.1	92.96277421617
6	2119	2.2	93.070536306233
6	2220	2.3	93.178298396295
6	2320	2.4	93.286060486357
6	2420	2.5	93.393822576419
6	2521	2.6	93.501584666482
6	2622	2.7	93.609346756544
6	2723	2.8	93.717108846606
6	2823	2.9	93.824870936668
6	2924	3	93.932633026731
6	3024	3.1	94.040395116793
6	3124	3.2	94.148157206855
6	3224	3.3	94.255919296917
6	3324	3.4	94.36368138698
6	3424	3.5	94.471443477042
6	3526	3.6	94.579205567104
6	3627	3.7	94.686967657166
6	3727	3.8	94.794729747229
6	3827	3.9	94.902491837291
6	3927	4	95.010253927353
6	4029	4.1	95.118016017415
6	4129	4.2	95.225778107477
6	4229	4.3	95.33354019754
6	4329	4.4	95.441302287602
6	4429	4.5	95.549064377664
6	4530	4.6	95.656826467726
6	4631	4.7	95.764588557789
6	4732	4.8	95.872350647851
6	4834	4.9	95.980112737913
6	4935	5	96.087874827975
6	5036	5.1	96.195636918038
6	5137	5.2	96.3033990081
6	5237	5.3	96.411161098162
6	5337	5.4	96.518923188224
6	5437	5.5	96.626685278287
6	5537	5.6	96.734447368349
6	5639	5.7	96.842209458411
6	5739	5.8	96.949971548473
6	5839	5.9	97.057733638536
6	5942	6	97.165495728598
6	6043	6.1	97.27325781866
6	6144	6.2	97.381019908722
6	6244	6.3	97.488781998784
6	6344	6.4	97.596544088847
6	6446	6.5	97.704306178909
6	6547	6.6	97.812068268971
6	6647	6.7	97.919830359033
6	6748	6.8	98.027592449096
6	6851	6.9	98.135354539158
6	6951	7	98.24311662922
6	7051	7.1	98.350878719282
6	7152	7.2	98.458640809345
6	7252	7.3	98.566402899407
6	7353	7.4	98.674164989469
6	7454	7.5	98.781927079531
6	7554	7.6	98.889689169594
6	7655	7.7	98.997451259656
6	7755	7.8	99.105213349718
6	7856	7.9	99.21297543978
6	7956	8	99.320737529843
6	8057	8.1	99.428499619905
6	8157	8.2	99.536261709967
6	8258	8.3	99.644023800029
6	8358	8.4	99.751785890091
6	8459	8.5	99.859547980154
6	8559	8.6	99.967310070216
6	8659	8.7	100.07507216028
6	8759	8.8	100.18283425034
6	8859	8.9	100.2905963404
6	8961	9	100.39835843046
6	9061	9.1	100.50612052053
6	9162	9.2	100.61388261059
6	9264	9.3	100.72164470065
6	9366	9.4	100.82940679071
6	9467	9.5	100.93716888078
6	9567	9.6	101.04493097084
6	9668	9.7	101.1526930609
6	9769	9.8	101.26045515096
6	9869	9.9	101.36821724103
6	9970	10	101.47597933109
6	10070	10.1	101.58374142115
6	10170	10.2	101.69150351121
6	10270	10.3	101.79926560127
6	10370	10.4	101.90702769134
6	10471	10.5	102.0147897814
6	10572	10.6	102.12255187146
6	10673	10.7	102.23031396152
6	10773	10.8	102.33807605159
6	10875	10.9	102.44583814165
6	10978	11	102.55360023171
6	11078	11.1	102.66136232177
6	11179	11.2	102.76912441183
6	11279	11.3	102.8768865019
6	11380	11.4	102.98464859196
6	11481	11.5	103.09241068202
6	11581	11.6	103.20017277208
6	11681	11.7	103.30793486215
6	11782	11.8	103.41569695221
6	11883	11.9	103.52345904227
6	11984	12	103.63122113233
6	12084	12.1	103.73898322239
6	12184	12.2	103.84674531246
6	12284	12.3	103.95450740252
6	12386	12.4	104.06226949258
6	12488	12.5	104.17003158264
6	12589	12.6	104.27779367271
6	12690	12.7	104.38555576277
6	12792	12.8	104.49331785283
6	12892	12.9	104.60107994289
6	12992	13	104.70884203295
6	13092	13.1	104.81660412302
6	13192	13.2	104.92436621308
6	13293	13.3	105.03212830314
6	13393	13.4	105.1398903932
6	13494	13.5	105.24765248327
6	13594	13.6	105.35541457333
6	13694	13.7	105.46317666339
6	13796	13.8	105.57093875345
6	13896	13.9	105.67870084351
6	13996	14	105.78646293358
6	14097	14.1	105.89422502364
6	14197	14.2	106.0019871137
7	0	0	999.04051539488
7	0	0	999.04051539488
7	1	0.1	996.29759057394
7	101	0.2	993.55466575299
7	201	0.3	990.81174093205
7	301	0.4	988.0688161111
7	402	0.5	985.32589129016
7	503	0.6	982.58296646921
7	603	0.7	979.84004164827
7	706	0.8	977.09711682732
7	806	0.9	974.35419200638
7	908	1	971.61126718543
7	1008	1.1	968.86834236449
7	1110	1.2	966.12541754354
7	1210	1.3	963.3824927226
7	1311	1.4	960.63956790165
7	1411	1.5	957.89664308071
7	1511	1.6	955.15371825976
7	1614	1.7	952.41079343882
7	1718	1.8	949.66786861787
7	1818	1.9	946.92494379693
7	1918	2	944.18201897598
7	2018	2.1	941.43909415504
7	2119	2.2	938.69616933409
7	2220	2.3	935.95324451315
7	2320	2.4	933.21031969221
7	2420	2.5	930.46739487126
7	2521	2.6	927.72447005032
7	2622	2.7	924.98154522937
7	2723	2.8	922.23862040843
7	2823	2.9	919.49569558748
7	2924	3	916.75277076654
7	3024	3.1	914.00984594559
7	3124	3.2	911.26692112465
7	3224	3.3	908.5239963037
7	3324	3.4	905.78107148276
7	3424	3.5	903.03814666181
7	3526	3.6	900.29522184087
7	3627	3.7	897.55229701992
7	3727	3.8	894.80937219898
7	3827	3.9	892.06644737803
7	3927	4	889.32352255709
7	4029	4.1	886.58059773614
7	4129	4.2	883.8376729152
7	4229	4.3	881.09474809425
7	4329	4.4	878.35182327331
7	4429	4.5	875.60889845236
7	4530	4.6	872.86597363142
7	4631	4.7	870.12304881047
7	4732	4.8	867.38012398953
7	4834	4.9	864.63719916858
7	4935	5	861.89427434764
7	5036	5.1	859.15134952669
7	5137	5.2	856.40842470575
7	5237	5.3	853.66549988481
7	5337	5.4	850.92257506386
7	5437	5.5	848.17965024292
7	5537	5.6	845.43672542197
7	5639	5.7	842.69380060103
7	5739	5.8	839.95087578008
7	5839	5.9	837.20795095914
7	5942	6	834.46502613819
7	6043	6.1	831.72210131725
7	6144	6.2	828.9791764963
7	6244	6.3	826.23625167536
7	6344	6.4	823.49332685441
7	6446	6.5	820.75040203347
7	6547	6.6	818.00747721252
7	6647	6.7	815.26455239158
7	6748	6.8	812.52162757063
7	6851	6.9	809.77870274969
7	6951	7	807.03577792874
7	7051	7.1	804.2928531078
7	7152	7.2	801.54992828685
7	7252	7.3	798.80700346591
7	7353	7.4	796.06407864496
7	7454	7.5	793.32115382402
7	7554	7.6	790.57822900307
7	7655	7.7	787.83530418213
7	7755	7.8	785.09237936118
7	7856	7.9	782.34945454024
7	7956	8	779.60652971929
7	8057	8.1	776.86360489835
7	8157	8.2	774.1206800774
7	8258	8.3	771.37775525646
7	8358	8.4	768.63483043552
7	8459	8.5	765.89190561457
7	8559	8.6	763.14898079363
7	8659	8.7	760.40605597268
7	8759	8.8	757.66313115174
7	8859	8.9	754.92020633079
7	8961	9	752.17728150985
7	9061	9.1	749.4343566889
7	9162	9.2	746.69143186796
7	9264	9.3	743.94850704701
7	9366	9.4	741.20558222607
7	9467	9.5	738.46265740512
7	9567	9.6	735.71973258418
7	9668	9.7	732.97680776323
7	9769	9.8	730.23388294229
7	9869	9.9	727.49095812134
7	9970	10	724.7480333004
7	10070	10.1	722.00510847945
7	10170	10.2	719.26218365851
7	10270	10.3	716.51925883756
7	10370	10.4	713.77633401662
7	10471	10.5	711.03340919567
7	10572	10.6	708.29048437473
7	10673	10.7	705.54755955378
7	10773	10.8	702.80463473284
7	10875	10.9	700.06170991189
7	10978	11	697.31878509095
7	11078	11.1	694.57586027
7	11179	11.2	691.83293544906
7	11279	11.3	689.09001062811
7	11380	11.4	686.34708580717
7	11481	11.5	683.60416098623
7	11581	11.6	680.86123616528
7	11681	11.7	678.11831134434
7	11782	11.8	675.37538652339
7	11883	11.9	672.63246170245
7	11984	12	669.8895368815
7	12084	12.1	667.14661206056
7	12184	12.2	664.40368723961
7	12284	12.3	661.66076241867
7	12386	12.4	658.91783759772
7	12488	12.5	656.17491277678
7	12589	12.6	653.43198795583
7	12690	12.7	650.68906313489
7	12792	12.8	647.94613831394
7	12892	12.9	645.203213493
7	12992	13	642.46028867205
7	13092	13.1	639.71736385111
7	13192	13.2	636.97443903016
7	13293	13.3	634.23151420922
7	13393	13.4	631.48858938827
7	13494	13.5	628.74566456733
7	13594	13.6	626.00273974638
7	13694	13.7	623.25981492544
7	13796	13.8	620.51689010449
7	13896	13.9	617.77396528355
7	13996	14	615.0310404626
7	14097	14.1	612.28811564166
7	14197	14.2	609.54519082071
8	0	0	0
8	0	0	0
8	1	0.1	0
8	101	0.2	0
8	201	0.3	0
8	301	0.4	0
8	402	0.5	0
8	503	0.6	0
8	603	0.7	0
8	706	0.8	0
8	806	0.9	0
8	908	1	0
8	1008	1.1	0
8	1110	1.2	0
8	1210	1.3	0
8	1311	1.4	0
8	1411	1.5	0
8	1511	1.6	0
8	1614	1.7	0
8	1718	1.8	0
8	1818	1.9	0
8	1918	2	0
8	2018	2.1	0
8	2119	2.2	0
8	2220	2.3	0
8	2320	2.4	0
8	2420	2.5	0
8	2521	2.6	0
8	2622	2.7	0
8	2723	2.8	0
8	2823	2.9	0
8	2924	3	0
8	3024	3.1	0
8	3124	3.2	0
8	3224	3.3	0
8	3324	3.4	0
8	3424	3.5	0
8	3526	3.6	0
8	3627	3.7	0
8	3727	3.8	0
8	3827	3.9	0
8	3927	4	0
8	4029	4.1	0
8	4129	4.2	0
8	4229	4.3	0
8	4329	4.4	0
8	4429	4.5	0
8	4530	4.6	0
8	4631	4.7	0
8	4732	4.8	0
8	4834	4.9	0
8	4935	5	0
8	5036	5.1	0
8	5137	5.2	0
8	5237	5.3	0
8	5337	5.4	0
8	5437	5.5	0
8	5537	5.6	0
8	5639	5.7	0
8	5739	5.8	0
8	5839	5.9	0
8	5942	6	0
8	6043	6.1	0
8	6144	6.2	0
8	6244	6.3	0
8	6344	6.4	0
8	6446	6.5	0
8	6547	6.6	0
8	6647	6.7	0
8	6748	6.8	0
8	6851	6.9	0
8	6951	7	0
8	7051	7.1	0
8	7152	7.2	0
8	7252	7.3	0
8	7353	7.4	0
8	7454	7.5	0
8	7554	7.6	0
8	7655	7.7	0
8	7755	7.8	0
8	7856	7.9	0
8	7956	8	0
8	8057	8.1	0
8	8157	8.2	0
8	8258	8.3	0
8	8358	8.4	0
8	8459	8.5	0
8	8559	8.6	0
8	8659	8.7	0
8	8759	8.8	0
8	8859	8.9	0
8	8961	9	0
8	9061	9.1	0
8	9162	9.2	0
8	9264	9.3	0
8	9366	9.4	0
8	9467	9.5	0
8	9567	9.6	0
8	9668	9.7	0
8	9769	9.8	0
8	9869	9.9	0
8	9970	10	0
8	10070	10.1	0
8	10170	10.2	0
8	10270	10.3	0
8	10370	10.4	0
8	10471	10.5	0
8	10572	10.6	0
8	10673	10.7	0
8	10773	10.8	0
8	10875	10.9	0
8	10978	11	0
8	11078	11.1	0
8	11179	11.2	0
8	11279	11.3	0
8	11380	11.4	0
8	11481	11.5	0
8	11581	11.6	0
8	11681	11.7	0
8	11782	11.8	0
8	11883	11.9	0
8	11984	12	0
8	12084	12.1	0
8	12184	12.2	0
8	12284	12.3	0
8	12386	12.4	0
8	12488	12.5	0
8	12589	12.6	0
8	12690	12.7	0
8	12792	12.8	0
8	12892	12.9	0
8	12992	13	0
8	13092	13.1	0
8	13192	13.2	0
8	13293	13.3	0
8	13393	13.4	0
8	13494	13.5	0
8	13594	13.6	0
8	13694	13.7	0
8	13796	13.8	0
8	13896	13.9	0
8	13996	14	0
8	14097	14.1	0
8	14197	14.2	0
9	0	0	200.92381210998
9	0	0	200.92381210998
9	1	0.1	202.03884314576
9	101	0.2	203.15387418154
9	201	0.3	204.26890521732
9	301	0.4	205.3839362531
9	402	0.5	206.49896728888
9	502	0.572093346436	207.30283047637
9	503	0.6	207.61638033345
9	602	0.672093346436	208.42639714251
9	603	0.7	208.73994699959
9	705	0.772093346436	209.54996380864
9	706	0.8	209.86351366572
9	806	0.872093346436	210.67353047478
9	806	0.9	210.98708033186
9	908	0.972093346436	211.79709714091
9	908	1	212.11064699799
9	1008	1.072093346436	212.92066380705
9	1008	1.1	213.23421366413
9	1109	1.172093346436	214.04423047318
9	1110	1.2	214.35778033026
9	1209	1.272093346436	215.16779713932
9	1210	1.3	215.4813469964
9	1309	1.372093346436	216.29136380546
9	1310	1.382444745372	216.40766867338
9	1311	1.4	216.66865030934
9	1410	1.482444745372	217.89429841182
9	1411	1.5	218.15528004778
9	1511	1.582444745372	219.38092815026
9	1511	1.6	219.64190978622
9	1614	1.682444745372	220.8675578887
9	1614	1.7	221.12853952465
9	1717	1.782444745372	222.35418762714
9	1718	1.8	222.61516926309
9	1817	1.882444745372	223.84081736557
9	1818	1.9	224.10179900153
9	1913	1.926198379509	224.4912719023
9	1918	2	225.35069092793
9	2013	2.026198379509	225.65577075736
9	2018	2.1	226.51518978299
9	2113	2.126198379509	226.82026961242
9	2119	2.2	227.67968863805
9	2214	2.226198379509	227.98476846748
9	2220	2.3	228.84418749311
9	2315	2.326198379509	229.14926732254
9	2320	2.4	230.00868634817
9	2415	2.426198379509	230.31376617759
9	2420	2.5	231.17318520323
9	2515	2.526198379509	231.47826503265
9	2516	2.540106085408	231.64022010861
9	2521	2.6	232.39144074175
9	2617	2.640106085408	232.8944721278
9	2622	2.7	233.64569276094
9	2719	2.740106085408	234.14872414699
9	2723	2.8	234.89994478013
9	2819	2.840106085408	235.40297616618
9	2823	2.9	236.15419679932
9	2919	2.940106085408	236.65722818537
9	2924	3	237.40844881851
9	3020	3.040106085408	237.91148020456
9	3024	3.1	238.6627008377
9	3121	3.140106085408	239.16573222375
9	3124	3.2	239.91695285689
9	3221	3.240106085408	240.41998424294
9	3224	3.3	241.17120487608
9	3320	3.327015836909	241.51005155602
9	3324	3.4	242.51092006399
9	3420	3.427015836909	242.88140181282
9	3424	3.5	243.88227032079
9	3521	3.527015836909	244.25275206962
9	3526	3.6	245.25362057759
9	3622	3.627015836909	245.62410232642
9	3627	3.7	246.6249708344
9	3723	3.727015836909	246.99545258322
9	3727	3.8	247.9963210912
9	3823	3.827015836909	248.36680284003
9	3827	3.9	249.367671348
9	3923	3.927015836909	249.73815309683
9	3927	4	250.7390216048
9	4023	4.027015836909	251.10950335363
9	4029	4.1	252.1103718616
9	4124	4.113643897371	252.29747748324
9	4129	4.2	253.27556438221
9	4224	4.213643897371	253.43009795729
9	4229	4.3	254.40818485627
9	4324	4.313643897371	254.56271843135
9	4329	4.4	255.54080533032
9	4424	4.413643897371	255.69533890541
9	4429	4.5	256.67342580438
9	4524	4.513643897371	256.82795937946
9	4530	4.6	257.80604627844
9	4625	4.613643897371	257.96057985352
9	4626	4.631524254148	258.16309643521
9	4631	4.7	259.20009805634
9	4726	4.731524254148	259.67750362893
9	4732	4.8	260.71450525006
9	4827	4.831524254148	261.19191082264
9	4834	4.886574775422	262.025599877
9	4834	4.9	262.19850139099
9	4934	4.986574775422	263.3134853272
9	4935	5	263.4863868412
9	5035	5.086574775422	264.60137077741
9	5036	5.1	264.77427229141
9	5135	5.186574775422	265.88925622762
9	5137	5.195157392508	265.99979050432
9	5137	5.2	266.09446262747
9	5237	5.295157392508	267.95477288324
9	5237	5.3	268.04944500639
9	5337	5.395157392508	269.90975526216
9	5337	5.4	270.00442738531
9	5437	5.495157392508	271.86473764109
9	5437	5.5	271.95940976423
9	5537	5.595157392508	273.81972002001
9	5537	5.6	273.91439214316
9	5638	5.695157392508	275.77470239893
9	5639	5.7	275.86937452208
9	5738	5.795157392508	277.72968477785
9	5739	5.8	277.824356901
9	5833	5.800084590305	277.82601062656
9	5839	5.9	278.96217880241
9	5933	5.900084590305	278.96314070421
9	5942	6	280.09930888007
9	6036	6.000084590305	280.10027078187
9	6039	6.038089225905	280.53243292418
9	6043	6.1	280.88657682747
9	6140	6.138089225905	281.10445598232
9	6144	6.2	281.45859988561
9	6238	6.202866080681	281.47499452797
9	6244	6.3	281.8238521964
9	6338	6.302866080681	281.83414576049
9	6344	6.4	282.18300342892
9	6438	6.402866080681	282.19329699301
9	6441	6.439789522228	282.32590798842
9	6446	6.5	282.31187253338
9	6541	6.539789522228	282.30259733626
9	6547	6.6	282.28856188123
9	6641	6.639789522228	282.27928668411
9	6647	6.7	282.26525122907
9	6742	6.71567605438	282.26159703856
9	6748	6.8	282.51068988064
9	6843	6.81567605438	282.55699692794
9	6844	6.832394633021	282.60638359075
9	6851	6.9	283.16286143894
9	6947	6.932394633021	283.42951032323
9	6951	7	283.98598817142
9	7047	7.032394633021	284.2526370557
9	7051	7.1	284.80911490389
9	7147	7.132394633021	285.07576378817
9	7152	7.2	285.63224163637
9	7247	7.232394633021	285.89889052065
9	7252	7.3	286.45536836884
9	7347	7.332394633021	286.72201725312
9	7353	7.4	287.27849510131
9	7448	7.432394633021	287.5451439856
9	7452	7.478091146539	287.92128420417
9	7454	7.5	288.00599237456
9	7552	7.578091146539	288.30792319714
9	7554	7.6	288.39263136753
9	7653	7.678091146539	288.6945621901
9	7655	7.7	288.7792703605
9	7753	7.778091146539	289.08120118307
9	7755	7.8	289.16590935346
9	7854	7.878091146539	289.46784017603
9	7856	7.9	289.55254834643
9	7954	7.978091146539	289.854479169
9	7956	8	289.93918733939
9	8055	8.078091146539	290.24111816197
9	8057	8.1	290.32582633236
9	8153	8.144836904246	290.49918328741
9	8157	8.2	290.95325395257
9	8253	8.244836904246	291.32232538804
9	8258	8.3	291.7763960532
9	8353	8.344836904246	292.14546748866
9	8358	8.4	292.59953815382
9	8453	8.444836904246	292.96860958929
9	8459	8.5	293.42268025444
9	8554	8.544836904246	293.79175168991
9	8559	8.6	294.24582235507
9	8654	8.644836904246	294.61489379053
9	8659	8.7	295.06896445569
9	8754	8.744836904246	295.43803589116
9	8759	8.8	295.89210655632
9	8856	8.844836904246	296.26117799178
9	8859	8.9	296.71524865694
9	8953	8.907967220338	296.78083020179
9	8961	9	297.4100757993
9	9055	9.007967220338	297.46454919824
9	9061	9.1	298.09379479574
9	9155	9.107967220338	298.14826819468
9	9161	9.158223653629	298.49188097602
9	9162	9.2	298.68474079996
9	9262	9.258223653629	298.9535293505
9	9264	9.3	299.14638917444
9	9363	9.358223653629	299.41517772498
9	9364	9.371920222065	299.47840771053
9	9366	9.4	299.59562827682
9	9466	9.471920222065	299.89586317106
9	9467	9.485437303872	299.95229096716
9	9467	9.5	299.90309717459
9	9567	9.585437303872	299.24848525436
9	9567	9.6	299.39309711261
9	9668	9.685437303872	299.75848531633
9	9668	9.7	299.90309717459
9	9769	9.785437303872	299.24848525436
9	9769	9.8	299.39309711261
9	9869	9.885437303872	299.75848531633
9	9869	9.9	299.90309717459
9	9970	9.985437303872	299.24848525436
9	9970	10	299.39309711261
9	10069	10.066376906933	294.27880780792
9	10070	10.1	294.62400508032
9	10169	10.166376906933	295.30547502059
9	10170	10.2	295.65067229299
9	10269	10.266376906933	296.33214223326
9	10270	10.3	296.67733950566
9	10369	10.366376906933	297.35880944593
9	10370	10.4	297.70400671833
9	10469	10.466376906933	298.3854766586
9	10471	10.5	298.730673931
9	10570	10.566376906933	299.41214387127
9	10572	10.6	299.75734114367
9	10670	10.666376906933	299.56118891606
9	10673	10.685737776567	299.36241721544
9	10673	10.7	299.28485547764
9	10773	10.785737776567	298.81859080459
9	10773	10.8	298.74102906679
9	10875	10.885737776567	298.27476439374
9	10875	10.9	298.19720265594
9	10975	10.985737776567	297.73093798289
9	10978	11	297.65337624509
9	11075	11.085737776567	297.18711157204
9	11078	11.1	297.10954983424
9	11177	11.185737776567	296.64328516119
9	11179	11.2	296.56572342339
9	11277	11.285737776567	296.09945875034
9	11279	11.3	296.02189701254
9	11377	11.385737776567	295.55563233949
9	11380	11.4	295.47807060169
9	11479	11.485737776567	295.01180592864
9	11481	11.5	294.93424419084
9	11574	11.519327828122	294.82913435687
9	11581	11.6	293.72217465484
9	11674	11.619327828122	293.45696390917
9	11681	11.7	292.35000420714
9	11774	11.719327828122	292.08479346147
9	11782	11.8	290.97783375944
9	11875	11.819327828122	290.71262301376
9	11883	11.9	289.60566331174
9	11976	11.919327828122	289.34045256606
9	11984	12	288.23349286404
9	12077	12.019327828122	287.96828211836
9	12084	12.1	286.86132241633
9	12177	12.119327828122	286.59611167066
9	12184	12.2	285.48915196863
9	12279	12.219327828122	285.22394122296
9	12284	12.3	284.11698152093
9	12380	12.319327828122	283.85177077526
9	12384	12.39181028234	282.85718795871
9	12386	12.4	282.76784870836
9	12486	12.49181028234	281.76631701464
9	12488	12.5	281.67697776428
9	12587	12.59181028234	280.67544607056
9	12589	12.6	280.58610682021
9	12687	12.670523181764	279.81678992151
9	12690	12.7	279.45331975033
9	12787	12.770523181764	278.58371867118
9	12789	12.785339669787	278.40102081706
9	12792	12.8	278.2213920294
9	12890	12.885339669787	277.17574972798
9	12892	12.9	276.99612094031
9	12990	12.985339669787	275.95047863889
9	12992	13	275.77084985122
9	13090	13.085339669787	274.7252075498
9	13092	13.1	274.54557876214
9	13190	13.185339669787	273.49993646071
9	13192	13.2	273.32030767305
9	13291	13.285339669787	272.27466537163
9	13293	13.3	272.09503658396
9	13391	13.385339669787	271.04939428254
9	13393	13.4	270.86976549488
9	13493	13.485339669787	269.82412319345
9	13494	13.5	269.64449440579
9	13593	13.585339669787	268.59885210437
9	13594	13.6	268.4192233167
9	13692	13.659234882259	267.69343542973
9	13694	13.7	267.23049631304
9	13792	13.759234882259	266.55780982054
9	13796	13.8	266.09487070385
9	13892	13.859234882259	265.42218421134
9	13896	13.9	264.95924509466
9	13992	13.959234882259	264.28655860215
9	13996	14	263.82361948547
9	14092	14.059234882259	263.15093299296
9	14097	14.1	262.68799387628
9	14194	14.159234882259	262.01530738377
9	14197	14.2	261.55236826709
10	0	0	396.76746865734
10	0	0	396.76746865734
10	1	0.1	397.46129364188
10	101	0.2	398.15511862642
10	201	0.3	398.84894361096
10	301	0.4	399.54276859549
10	402	0.5	400.23659358003
10	502	0.572093346436	400.73679522979
10	503	0.6	400.90817361429
10	602	0.672093346436	401.3509082194
10	603	0.7	401.52228660389
10	705	0.772093346436	401.965021209
10	706	0.8	402.1363995935
10	806	0.872093346436	402.5791341986
10	806	0.9	402.7505125831
10	908	0.972093346436	403.1932471882
10	908	1	403.3646255727
10	1008	1.072093346436	403.8073601778
10	1008	1.1	403.9787385623
10	1109	1.172093346436	404.4214731674
10	1110	1.2	404.5928515519
10	1209	1.272093346436	405.035586157
10	1210	1.3	405.2069645415
10	1309	1.372093346436	405.6496991466
10	1310	1.382444745372	405.71326843207
10	1311	1.4	405.93478421789
10	1410	1.482444745372	406.97508884149
10	1411	1.5	407.19660462731
10	1511	1.582444745372	408.23690925091
10	1511	1.6	408.45842503673
10	1614	1.682444745372	409.49872966033
10	1614	1.7	409.72024544615
10	1717	1.782444745372	410.76055006975
10	1718	1.8	410.98206585557
10	1817	1.882444745372	412.02237047917
10	1818	1.9	412.24388626499
10	1913	1.926198379509	412.57446276457
10	1918	2	413.09473748918
10	2013	2.026198379509	413.2794265867
10	2018	2.1	413.7997013113
10	2113	2.126198379509	413.98439040883
10	2119	2.2	414.50466513343
10	2214	2.226198379509	414.68935423096
10	2220	2.3	415.20962895556
10	2315	2.326198379509	415.39431805308
10	2320	2.4	415.91459277769
10	2415	2.426198379509	416.09928187521
10	2420	2.5	416.61955659982
10	2515	2.526198379509	416.80424569734
10	2516	2.540106085408	416.90228999242
10	2521	2.6	417.20769195637
10	2617	2.640106085408	417.41219482337
10	2622	2.7	417.71759678732
10	2719	2.740106085408	417.92209965432
10	2723	2.8	418.22750161827
10	2819	2.840106085408	418.43200448527
10	2823	2.9	418.73740644922
10	2919	2.940106085408	418.94190931622
10	2924	3	419.24731128016
10	3020	3.040106085408	419.45181414716
10	3024	3.1	419.75721611111
10	3121	3.140106085408	419.96171897811
10	3124	3.2	420.26712094206
10	3221	3.240106085408	420.47162380906
10	3224	3.3	420.77702577301
10	3320	3.327015836909	420.91478083053
10	3324	3.4	421.02608010615
10	3420	3.427015836909	421.06727867514
10	3424	3.5	421.17857795075
10	3521	3.527015836909	421.21977651974
10	3526	3.6	421.33107579536
10	3622	3.627015836909	421.37227436435
10	3627	3.7	421.48357363996
10	3723	3.727015836909	421.52477220895
10	3727	3.8	421.63607148457
10	3823	3.827015836909	421.67727005355
10	3827	3.9	421.78856932917
10	3923	3.927015836909	421.82976789816
10	3927	4	421.94106717377
10	4023	4.027015836909	421.98226574276
10	4029	4.1	422.09356501838
10	4124	4.113643897371	422.11437166779
10	4129	4.2	422.43508915199
10	4224	4.213643897371	422.48576115207
10	4229	4.3	422.80647863628
10	4324	4.313643897371	422.85715063636
10	4329	4.4	423.17786812056
10	4424	4.413643897371	423.22854012064
10	4429	4.5	423.54925760485
10	4524	4.513643897371	423.59992960493
10	4530	4.6	423.92064708913
10	4625	4.613643897371	423.97131908921
10	4626	4.631524254148	424.03772485404
10	4631	4.7	423.9581271432
10	4726	4.731524254148	423.92148265784
10	4732	4.8	423.84188494701
10	4827	4.831524254148	423.80524046165
10	4834	4.886574775422	423.74124852671
10	4834	4.9	423.73503115558
10	4934	4.986574775422	423.69493741217
10	4935	5	423.68872004104
10	5035	5.086574775422	423.64862629763
10	5036	5.1	423.6424089265
10	5135	5.186574775422	423.60231518309
10	5137	5.195157392508	423.59834047746
10	5137	5.2	423.58674333744
10	5237	5.295157392508	423.35885916404
10	5237	5.3	423.34726202402
10	5337	5.395157392508	423.11937785062
10	5337	5.4	423.10778071059
10	5437	5.495157392508	422.8798965372
10	5437	5.5	422.86829939717
10	5537	5.595157392508	422.64041522378
10	5537	5.6	422.62881808375
10	5638	5.695157392508	422.40093391036
10	5639	5.7	422.38933677033
10	5738	5.795157392508	422.16145259694
10	5739	5.8	422.14985545691
10	5833	5.800084590305	422.14965287894
10	5839	5.9	421.40080776906
10	5933	5.900084590305	421.4001737824
10	5942	6	420.65132867253
10	6036	6.000084590305	420.65069468587
10	6039	6.038089225905	420.36585788634
10	6043	6.1	419.84859374386
10	6140	6.138089225905	419.53035849219
10	6144	6.2	419.01309434972
10	6238	6.202866080681	418.98914826299
10	6244	6.3	418.00602064871
10	6338	6.302866080681	417.97701200701
10	6344	6.4	416.99388439272
10	6438	6.402866080681	416.96487575102
10	6441	6.439789522228	416.59116021217
10	6446	6.5	415.54128814589
10	6541	6.539789522228	414.84749016481
10	6547	6.6	413.79761809852
10	6641	6.639789522228	413.10382011745
10	6647	6.7	412.05394805116
10	6742	6.71567605438	411.78060938633
10	6748	6.8	410.83749770358
10	6843	6.81567605438	410.66217063703
10	6844	6.832394633021	410.47518357518
10	6851	6.9	409.63849125088
10	6947	6.932394633021	409.23757129425
10	6951	7	408.40087896995
10	7047	7.032394633021	407.99995901332
10	7051	7.1	407.16326668902
10	7147	7.132394633021	406.76234673239
10	7152	7.2	405.92565440809
10	7247	7.232394633021	405.52473445146
10	7252	7.3	404.68804212716
10	7347	7.332394633021	404.28712217053
10	7353	7.4	403.45042984623
10	7448	7.432394633021	403.0495098896
10	7452	7.478091146539	402.48396422634
10	7454	7.5	402.19599478582
10	7552	7.578091146539	401.16956664258
10	7554	7.6	400.88159720206
10	7653	7.678091146539	399.85516905883
10	7655	7.7	399.56719961831
10	7753	7.778091146539	398.54077147507
10	7755	7.8	398.25280203455
10	7854	7.878091146539	397.22637389131
10	7856	7.9	396.93840445079
10	7954	7.978091146539	395.91197630755
10	7956	8	395.62400686703
10	8055	8.078091146539	394.5975787238
10	8057	8.1	394.30960928328
10	8153	8.144836904246	393.72027409724
10	8157	8.2	393.01359115273
10	8253	8.244836904246	392.43919489956
10	8258	8.3	391.73251195505
10	8353	8.344836904246	391.15811570188
10	8358	8.4	390.45143275737
10	8453	8.444836904246	389.87703650419
10	8459	8.5	389.17035355969
10	8554	8.544836904246	388.59595730651
10	8559	8.6	387.88927436201
10	8654	8.644836904246	387.31487810883
10	8659	8.7	386.60819516433
10	8754	8.744836904246	386.03379891115
10	8759	8.8	385.32711596665
10	8856	8.844836904246	384.75271971347
10	8859	8.9	384.04603676897
10	8953	8.907967220338	383.94397036659
10	8961	9	382.93232602597
10	9055	9.007967220338	382.84474860633
10	9061	9.1	381.83310426571
10	9155	9.107967220338	381.74552684607
10	9161	9.158223653629	381.19309719541
10	9162	9.2	380.74217331309
10	9262	9.258223653629	380.11372113337
10	9264	9.3	379.66279725105
10	9363	9.358223653629	379.03434507134
10	9364	9.371920222065	378.88650759032
10	9366	9.4	378.3870282546
10	9466	9.471920222065	377.10772096003
10	9467	9.485437303872	376.86728091604
10	9467	9.5	376.63383590951
10	9567	9.585437303872	375.26424666686
10	9567	9.6	375.03080166032
10	9668	9.685437303872	373.66121241767
10	9668	9.7	373.42776741114
10	9769	9.785437303872	372.05817816849
10	9769	9.8	371.82473316195
10	9869	9.885437303872	370.4551439193
10	9869	9.9	370.22169891277
10	9970	9.985437303872	368.85210967012
10	9970	10	368.61866466358
10	10069	10.066376906933	367.5546201119
10	10070	10.1	367.26180038176
10	10169	10.166376906933	366.68373137614
10	10170	10.2	366.390911646
10	10269	10.266376906933	365.81284264037
10	10270	10.3	365.52002291024
10	10369	10.366376906933	364.94195390461
10	10370	10.4	364.64913417448
10	10469	10.466376906933	364.07106516885
10	10471	10.5	363.77824543871
10	10570	10.566376906933	363.20017643309
10	10572	10.6	362.90735670295
10	10670	10.666376906933	362.32928769733
10	10673	10.685737776567	362.16067606454
10	10673	10.7	362.00249130995
10	10773	10.785737776567	361.05155899505
10	10773	10.8	360.89337424046
10	10875	10.885737776567	359.94244192556
10	10875	10.9	359.78425717097
10	10975	10.985737776567	358.83332485607
10	10978	11	358.67514010149
10	11075	11.085737776567	357.72420778658
10	11078	11.1	357.566023032
10	11177	11.185737776567	356.61509071709
10	11179	11.2	356.45690596251
10	11277	11.285737776567	355.5059736476
10	11279	11.3	355.34778889302
10	11377	11.385737776567	354.39685657811
10	11380	11.4	354.23867182353
10	11479	11.485737776567	353.28773950862
10	11481	11.5	353.12955475404
10	11574	11.519327828122	352.91518651318
10	11581	11.6	352.03896474731
10	11674	11.619327828122	351.82903530952
10	11681	11.7	350.95281354365
10	11774	11.719327828122	350.74288410587
10	11782	11.8	349.86666234
10	11875	11.819327828122	349.65673290221
10	11883	11.9	348.78051113634
10	11976	11.919327828122	348.57058169856
10	11984	12	347.69435993269
10	12077	12.019327828122	347.4844304949
10	12084	12.1	346.60820872904
10	12177	12.119327828122	346.39827929125
10	12184	12.2	345.52205752538
10	12279	12.219327828122	345.31212808759
10	12284	12.3	344.43590632173
10	12380	12.319327828122	344.22597688394
10	12384	12.39181028234	343.43870783501
10	12386	12.4	343.33430848266
10	12486	12.49181028234	342.16394652222
10	12488	12.5	342.05954716986
10	12587	12.59181028234	340.88918520943
10	12589	12.6	340.78478585707
10	12687	12.670523181764	339.8857836194
10	12690	12.7	339.62501341838
10	12787	12.770523181764	339.001121649
10	12789	12.785339669787	338.87004581412
10	12792	12.8	338.73310487449
10	12890	12.885339669787	337.93595403282
10	12892	12.9	337.79901309319
10	12990	12.985339669787	337.00186225153
10	12992	13	336.8649213119
10	13090	13.085339669787	336.06777047023
10	13092	13.1	335.9308295306
10	13190	13.185339669787	335.13367868894
10	13192	13.2	334.99673774931
10	13291	13.285339669787	334.19958690765
10	13293	13.3	334.06264596802
10	13391	13.385339669787	333.26549512635
10	13393	13.4	333.12855418672
10	13493	13.485339669787	332.33140334506
10	13494	13.5	332.19446240543
10	13593	13.585339669787	331.39731156376
10	13594	13.6	331.26037062413
10	13692	13.659234882259	330.70706245729
10	13694	13.7	330.56571716837
10	13792	13.759234882259	330.36033148543
10	13796	13.8	330.21898619651
10	13892	13.859234882259	330.01360051358
10	13896	13.9	329.87225522465
10	13992	13.959234882259	329.66686954172
10	13996	14	329.52552425279
10	14092	14.059234882259	329.32013856986
10	14097	14.1	329.17879328094
10	14194	14.159234882259	328.973407598
10	14197	14.2	328.83206230908
11	0	0	0
11	0	0	0
11	1	0.1	0
11	101	0.2	0
11	201	0.3	0
11	301	0.4	0
11	402	0.5	0
11	502	0.572093346436	0
11	503	0.6	0
11	602	0.672093346436	0
11	603	0.7	0
11	705	0.772093346436	0
11	706	0.8	0
11	806	0.872093346436	0
11	806	0.9	0
11	908	0.972093346436	0
11	908	1	0
11	1008	1.072093346436	0
11	1008	1.1	0
11	1109	1.172093346436	0
11	1110	1.2	0
11	1209	1.272093346436	0
11	1210	1.3	0
11	1309	1.372093346436	0
11	1310	1.382444745372	0
11	1311	1.4	0
11	1410	1.482444745372	0
11	1411	1.5	0
11	1511	1.582444745372	0
11	1511	1.6	0
11	1614	1.682444745372	0
11	1614	1.7	0
11	1717	1.782444745372	0
11	1718	1.8	0
11	1817	1.882444745372	0
11	1818	1.9	0
11	1913	1.926198379509	0
11	1918	2	0
11	2013	2.026198379509	0
11	2018	2.1	0
11	2113	2.126198379509	0
11	2119	2.2	0
11	2214	2.226198379509	0
11	2220	2.3	0
11	2315	2.326198379509	0
11	2320	2.4	0
11	2415	2.426198379509	0
11	2420	2.5	0
11	2515	2.526198379509	0
11	2516	2.540106085408	0
11	2521	2.6	0
11	2617	2.640106085408	0
11	2622	2.7	0
11	2719	2.740106085408	0
11	2723	2.8	0
11	2819	2.840106085408	0
11	2823	2.9	0
11	2919	2.940106085408	0
11	2924	3	0
11	3020	3.040106085408	0
11	3024	3.1	0
11	3121	3.140106085408	0
11	3124	3.2	0
11	3221	3.240106085408	0
11	3224	3.3	0
11	3320	3.327015836909	0
11	3324	3.4	0
11	3420	3.427015836909	0
11	3424	3.5	0
11	3521	3.527015836909	0
11	3526	3.6	0
11	3622	3.627015836909	0
11	3627	3.7	0
11	3723	3.727015836909	0
11	3727	3.8	0
11	3823	3.827015836909	0
11	3827	3.9	0
11	3923	3.927015836909	0
11	3927	4	0
11	4023	4.027015836909	0
11	4029	4.1	0
11	4124	4.113643897371	0
11	4129	4.2	0
11	4224	4.213643897371	0
11	4229	4.3	0
11	4324	4.313643897371	0
11	4329	4.4	0
11	4424	4.413643897371	0
11	4429	4.5	0
11	4524	4.513643897371	0
11	4530	4.6	0
11	4625	4.613643897371	0
11	4626	4.631524254148	0
11	4631	4.7	0
11	4726	4.731524254148	0
11	4732	4.8	0
11	4827	4.831524254148	0
11	4834	4.886574775422	0
11	4834	4.9	0
11	4934	4.986574775422	0
11	4935	5	0
11	5035	5.086574775422	0
11	5036	5.1	0
11	5135	5.186574775422	0
11	5137	5.195157392508	0
11	5137	5.2	0
11	5237	5.295157392508	0
11	5237	5.3	0
11	5337	5.395157392508	0
11	5337	5.4	0
11	5437	5.495157392508	0
11	5437	5.5	0
11	5537	5.595157392508	0
11	5537	5.6	0
11	5638	5.695157392508	0
11	5639	5.7	0
11	5738	5.795157392508	0
11	5739	5.8	0
11	5833	5.800084590305	0
11	5839	5.9	0
11	5933	5.900084590305	0
11	5942	6	0
11	6036	6.000084590305	0
11	6039	6.038089225905	0
11	6043	6.1	0
11	6140	6.138089225905	0
11	6144	6.2	0
11	6238	6.202866080681	0
11	6244	6.3	0
11	6338	6.302866080681	0
11	6344	6.4	0
11	6438	6.402866080681	0
11	6441	6.439789522228	0
11	6446	6.5	0
11	6541	6.539789522228	0
11	6547	6.6	0
11	6641	6.639789522228	0
11	6647	6.7	0
11	6742	6.71567605438	0
11	6748	6.8	0
11	6843	6.81567605438	0
11	6844	6.832394633021	0
11	6851	6.9	0
11	6947	6.932394633021	0
11	6951	7	0
11	7047	7.032394633021	0
11	7051	7.1	0
11	7147	7.132394633021	0
11	7152	7.2	0
11	7247	7.232394633021	0
11	7252	7.3	0
11	7347	7.332394633021	0
11	7353	7.4	0
11	7448	7.432394633021	0
11	7452	7.478091146539	0
11	7454	7.5	0
11	7552	7.578091146539	0
11	7554	7.6	0
11	7653	7.678091146539	0
11	7655	7.7	0
11	7753	7.778091146539	0
11	7755	7.8	0
11	7854	7.878091146539	0
11	7856	7.9	0
11	7954	7.978091146539	0
11	7956	8	0
11	8055	8.078091146539	0
11	8057	8.1	0
11	8153	8.144836904246	0
11	8157	8.2	0
11	8253	8.244836904246	0
11	8258	8.3	0
11	8353	8.344836904246	0
11	8358	8.4	0
11	8453	8.444836904246	0
11	8459	8.5	0
11	8554	8.544836904246	0
11	8559	8.6	0
11	8654	8.644836904246	0
11	8659	8.7	0
11	8754	8.744836904246	0
11	8759	8.8	0
11	8856	8.844836904246	0
11	8859	8.9	0
11	8953	8.907967220338	0
11	8961	9	0
11	9055	9.007967220338	0
11	9061	9.1	0
11	9155	9.107967220338	0
11	9161	9.158223653629	0
11	9162	9.2	0
11	9262	9.258223653629	0
11	9264	9.3	0
11	9363	9.358223653629	0
11	9364	9.371920222065	0
11	9366	9.4	0
11	9466	9.471920222065	0
11	9467	9.485437303872	0
11	9467	9.5	0
11	9567	9.585437303872	0
11	9567	9.6	0
11	9668	9.685437303872	0
11	9668	9.7	0
11	9769	9.785437303872	0
11	9769	9.8	0
11	9869	9.885437303872	0
11	9869	9.9	0
11	9970	9.985437303872	0
11	9970	10	0
11	10069	10.066376906933	0
11	10070	10.1	0
11	10169	10.166376906933	0
11	10170	10.2	0
11	10269	10.266376906933	0
11	10270	10.3	0
11	10369	10.366376906933	0
11	10370	10.4	0
11	10469	10.466376906933	0
11	10471	10.5	0
11	10570	10.566376906933	0
11	10572	10.6	0
11	10670	10.666376906933	0
11	10673	10.685737776567	0
11	10673	10.7	0
11	10773	10.785737776567	0
11	10773	10.8	0
11	10875	10.885737776567	0
11	10875	10.9	0
11	10975	10.985737776567	0
11	10978	11	0
11	11075	11.085737776567	0
11	11078	11.1	0
11	11177	11.185737776567	0
11	11179	11.2	0
11	11277	11.285737776567	0
11	11279	11.3	0
11	11377	11.385737776567	0
11	11380	11.4	0
11	11479	11.485737776567	0
11	11481	11.5	0
11	11574	11.519327828122	0
11	11581	11.6	0
11	11674	11.619327828122	0
11	11681	11.7	0
11	11774	11.719327828122	0
11	11782	11.8	0
11	11875	11.819327828122	0
11	11883	11.9	0
11	11976	11.919327828122	0
11	11984	12	0
11	12077	12.019327828122	0
11	12084	12.1	0
11	12177	12.119327828122	0
11	12184	12.2	0
11	12279	12.219327828122	0
11	12284	12.3	0
11	12380	12.319327828122	0
11	12384	12.39181028234	0
11	12386	12.4	0
11	12486	12.49181028234	0
11	12488	12.5	0
11	12587	12.59181028234	0
11	12589	12.6	0
11	12687	12.670523181764	0
11	12690	12.7	0
11	12787	12.770523181764	0
11	12789	12.785339669787	0
11	12792	12.8	0
11	12890	12.885339669787	0
11	12892	12.9	0
11	12990	12.985339669787	0
11	12992	13	0
11	13090	13.085339669787	0
11	13092	13.1	0
11	13190	13.185339669787	0
11	13192	13.2	0
11	13291	13.285339669787	0
11	13293	13.3	0
11	13391	13.385339669787	0
11	13393	13.4	0
11	13493	13.485339669787	0
11	13494	13.5	0
11	13593	13.585339669787	0
11	13594	13.6	0
11	13692	13.659234882259	0
11	13694	13.7	0
11	13792	13.759234882259	0
11	13796	13.8	0
11	13892	13.859234882259	0
11	13896	13.9	0
11	13992	13.959234882259	0
11	13996	14	0
11	14092	14.059234882259	0
11	14097	14.1	0
11	14194	14.159234882259	0
11	14197	14.2	0
12	0	0	61.335674696602
12	0	0	61.335674696602
12	1	0.1	63.002992495162
12	101	0.2	64.670310293722
12	201	0.3	66.337628092282
12	301	0.4	68.004945890842
12	402	0.475574323884	69.265010044102
12	402	0.5	69.662669757514
12	503	0.575574323884	70.893049781975
12	503	0.6	71.290709495387
12	603	0.675574323884	72.521089519848
12	603	0.7	72.91874923326
12	706	0.775574323884	74.14912925772
12	706	0.8	74.546788971133
12	804	0.84422009252	75.266709649483
12	806	0.9	76.078023012233
12	905	0.94422009252	76.721199983733
12	908	1	77.532513346483
12	1004	1.019480797299	77.815859660232
12	1008	1.1	78.988829075869
12	1104	1.119480797299	79.272617025295
12	1108	1.167507087253	79.972243541367
12	1110	1.2	80.332172313022
12	1208	1.267507087253	81.079958243515
12	1210	1.3	81.439887015169
12	1308	1.367507087253	82.187672945662
12	1311	1.4	82.547601717316
12	1409	1.467507087253	83.295387647809
12	1411	1.5	83.655316419464
12	1510	1.567507087253	84.403102349957
12	1511	1.6	84.763031121611
12	1613	1.667507087253	85.510817052104
12	1614	1.7	85.870745823758
12	1714	1.767507087253	86.618531754251
12	1718	1.797882070811	86.954999912898
12	1718	1.8	86.983828891795
12	1818	1.897882070811	88.316187012402
12	1818	1.9	88.345015991299
12	1918	1.997882070811	89.677374111905
12	1918	2	89.706203090803
12	2018	2.097882070811	91.038561211409
12	2018	2.1	91.067390190306
12	2118	2.197882070811	92.399748310913
12	2119	2.2	92.42857728981
12	2219	2.297882070811	93.760935410416
12	2220	2.3	93.789764389314
12	2319	2.382464296021	94.912257748448
12	2320	2.4	95.18348061408
12	2419	2.482464296021	96.458947096973
12	2420	2.5	96.730169962605
12	2520	2.582464296021	98.005636445497
12	2521	2.6	98.276859311129
12	2621	2.682464296021	99.552325794022
12	2622	2.7	99.823548659654
12	2722	2.782464296021	101.09901514255
12	2723	2.8	101.37023800818
12	2822	2.882464296021	102.64570449107
12	2823	2.9	102.9169273567
12	2923	2.982464296021	104.1923938396
12	2924	3	104.46361670523
12	3023	3.082464296021	105.73908318812
12	3024	3.1	106.01030605375
12	3122	3.158312489511	106.91221911788
12	3124	3.2	107.3837461979
12	3222	3.258312489511	108.04331827561
12	3224	3.3	108.51484535563
12	3322	3.358312489511	109.17441743334
12	3324	3.4	109.64594451336
12	3422	3.458312489511	110.30551659107
12	3424	3.5	110.77704367109
12	3524	3.558312489511	111.43661574881
12	3526	3.6	111.90814282883
12	3621	3.625635613221	112.19810703405
12	3627	3.7	112.96672826924
12	3722	3.725635613221	113.23169484198
12	3727	3.8	114.00031607718
12	3822	3.825635613221	114.26528264992
12	3827	3.9	115.03390388511
12	3922	3.925635613221	115.29887045786
12	3927	4	116.06749169305
12	4022	4.025635613221	116.33245826579
12	4026	4.04717839763	116.55512185893
12	4029	4.1	117.00590075696
12	4126	4.14717839763	117.40852061589
12	4129	4.2	117.85929951392
12	4226	4.24717839763	118.26191937285
12	4229	4.3	118.71269827088
12	4326	4.34717839763	119.11531812981
12	4329	4.4	119.56609702784
12	4426	4.44717839763	119.96871688676
12	4429	4.5	120.4194957848
12	4526	4.54717839763	120.82211564372
12	4530	4.572405934892	121.03740713313
12	4530	4.6	121.55988055669
12	4631	4.672405934892	122.93083393166
12	4631	4.7	123.45330735523
12	4731	4.772405934892	124.8242607302
12	4732	4.8	125.34673415376
12	4831	4.872405934892	126.71768752874
12	4834	4.9	127.2401609523
12	4931	4.972405934892	128.61111432728
12	4935	5	129.13358775084
12	5031	5.072405934892	130.50454112581
12	5036	5.1	131.02701454937
12	5131	5.172405934892	132.39796792435
12	5137	5.2	132.92044134791
12	5232	5.272405934892	134.29139472289
12	5237	5.3	134.81386814645
12	5332	5.312778216064	135.05581431378
12	5337	5.4	136.62480434131
12	5432	5.412778216064	136.85466542268
12	5437	5.5	138.42365545021
12	5532	5.512778216064	138.65351653157
12	5537	5.6	140.2225065591
12	5632	5.612778216064	140.45236764047
12	5633	5.622455062111	140.62643969289
12	5639	5.7	141.69478297239
12	5734	5.722455062111	142.00414829462
12	5739	5.8	143.07249157412
12	5836	5.822455062111	143.38185689634
12	5839	5.9	144.45020017584
12	5936	5.922455062111	144.75956549807
12	5942	6	145.82790877757
12	6038	6.022455062111	146.13727409979
12	6043	6.1	147.20561737929
12	6138	6.122455062111	147.51498270152
12	6144	6.2	148.58332598102
12	6239	6.222455062111	148.89269130325
12	6244	6.3	149.96103458275
12	6339	6.322455062111	150.27039990497
12	6344	6.4	151.33874318447
12	6439	6.422455062111	151.6481085067
12	6446	6.499642729526	152.71152964015
12	6446	6.5	152.71736923446
12	6547	6.599642729526	154.34603199446
12	6547	6.6	154.35187158877
12	6647	6.699642729526	155.98053434877
12	6647	6.7	155.98637394308
12	6748	6.799642729526	157.61503670309
12	6748	6.8	157.6208762974
12	6851	6.899642729526	159.2495390574
12	6851	6.9	159.25537865171
12	6951	6.999642729526	160.88404141172
12	6951	7	160.88988100602
12	7051	7.099642729526	162.51854376603
12	7051	7.1	162.52438336034
12	7152	7.199642729526	164.15304612034
12	7152	7.2	164.15888571465
12	7252	7.299642729526	165.78754847466
12	7252	7.3	165.79338806897
12	7350	7.361788649042	166.80332499226
12	7353	7.4	167.31800655264
12	7451	7.461788649042	168.15025868467
12	7454	7.5	168.66494024505
12	7551	7.561788649042	169.49719237709
12	7554	7.6	170.01187393747
12	7652	7.661788649042	170.8441260695
12	7655	7.7	171.35880762988
12	7749	7.700216251518	171.36172039444
12	7755	7.8	172.32775678296
12	7849	7.800216251518	172.32985037874
12	7853	7.860099085699	172.9095940519
12	7856	7.9	173.42411210114
12	7953	7.960099085699	174.19908342389
12	7956	8	174.71360147312
12	8053	8.060099085699	175.48857279587
12	8057	8.1	176.00309084511
12	8154	8.160099085699	176.77806216786
12	8157	8.2	177.29258021709
12	8254	8.260099085699	178.06755153984
12	8258	8.3	178.58206958908
12	8354	8.360099085699	179.35704091182
12	8358	8.4	179.87155896106
12	8454	8.460099085699	180.64653028381
12	8457	8.479024881752	180.89057641248
12	8459	8.5	181.2341239493
12	8557	8.579024881752	182.52845770004
12	8559	8.6	182.87200523687
12	8657	8.679024881752	184.1663389876
12	8659	8.7	184.50988652443
12	8757	8.779024881752	185.80422027517
12	8759	8.8	186.14776781199
12	8858	8.879024881752	187.44210156273
12	8859	8.9	187.78564909956
12	8957	8.936875031003	188.38961833214
12	8961	9	189.30348303528
12	9057	9.036875031003	189.83732550358
12	9061	9.1	190.75119020672
12	9158	9.136875031003	191.28503267503
12	9162	9.2	192.19889737817
12	9258	9.236875031003	192.73273984647
12	9264	9.3	193.64660454961
12	9359	9.336875031003	194.18044701792
12	9366	9.4	195.09431172106
12	9462	9.436875031003	195.62815418936
12	9467	9.5	196.5420188925
12	9563	9.536875031003	197.0758613608
12	9567	9.6	197.98972606394
12	9663	9.636875031003	198.52356853225
12	9668	9.7	199.43743323539
12	9764	9.736875031003	199.97127570369
12	9768	9.764379900693	200.36946567469
12	9769	9.8	200.68927275772
12	9868	9.864379900693	201.26729327555
12	9869	9.9	201.58710035858
12	9968	9.964379900693	202.16512087641
12	9970	10	202.48492795945
12	10068	10.064379900693	203.06294847728
12	10070	10.1	203.38275556031
12	10168	10.164379900693	203.96077607814
12	10170	10.2	204.28058316117
12	10268	10.264379900693	204.858603679
12	10270	10.3	205.17841076203
12	10368	10.364379900693	205.75643127986
12	10370	10.4	206.0762383629
12	10468	10.464379900693	206.65425888072
12	10471	10.5	206.97406596376
12	10569	10.564379900693	207.55208648159
12	10572	10.6	207.87189356462
12	10669	10.664379900693	208.44991408245
12	10673	10.7	208.76972116548
12	10770	10.733534025121	209.0707988987
12	10773	10.8	209.96628291575
12	10870	10.833534025121	210.41808075033
12	10875	10.9	211.31356476739
12	10970	10.933534025121	211.76536260197
12	10976	10.999143209913	212.64930324167
12	10978	11	212.66281002731
12	11076	11.099143209913	214.22574370692
12	11078	11.1	214.23925049255
12	11178	11.199143209913	215.80218417216
12	11179	11.2	215.81569095779
12	11278	11.299143209913	217.3786246374
12	11279	11.3	217.39213142303
12	11379	11.399143209913	218.95506510264
12	11380	11.4	218.96857188827
12	11481	11.499143209913	220.53150556788
12	11481	11.5	220.54501235351
12	11581	11.599143209913	222.10794603312
12	11581	11.6	222.12145281876
12	11681	11.699143209913	223.68438649836
12	11681	11.7	223.697893284
12	11782	11.799143209913	225.26082696361
12	11782	11.8	225.27433374924
12	11880	11.879908919217	226.53405028711
12	11883	11.9	226.73327329444
12	11980	11.979908919217	227.52564954191
12	11984	12	227.72487254923
12	12080	12.079908919217	228.5172487967
12	12084	12.1	228.71647180403
12	12180	12.179908919217	229.5088480515
12	12184	12.2	229.70807105882
12	12278	12.21769189299	229.88350373787
12	12284	12.3	231.06659738421
12	12379	12.31769189299	231.32089999119
12	12386	12.4	232.50399363754
12	12481	12.41769189299	232.75829624452
12	12482	12.434867139206	233.00517259013
12	12488	12.5	233.75956190435
12	12583	12.534867139206	234.16340409574
12	12584	12.543866893834	234.26764208927
12	12589	12.6	234.84662376771
12	12684	12.643866893834	235.29908630818
12	12690	12.7	235.87806798662
12	12784	12.743866893834	236.33053052708
12	12792	12.8	236.90951220553
12	12885	12.843866893834	237.36197474599
12	12892	12.9	237.94095642443
12	12985	12.943866893834	238.3934189649
12	12992	13	238.97240064334
12	13085	13.043866893834	239.4248631838
12	13092	13.1	240.00384486224
12	13185	13.143866893834	240.45630740271
12	13192	13.2	241.03528908115
12	13285	13.243866893834	241.48775162161
12	13293	13.3	242.06673330006
12	13386	13.343866893834	242.51919584052
12	13393	13.4	243.09817751896
12	13488	13.443866893834	243.55064005943
12	13492	13.485251871751	243.97750302165
12	13494	13.5	244.13997422662
12	13592	13.585251871751	245.07914251266
12	13594	13.6	245.24161371764
12	13689	13.6252280195	245.51953554325
12	13694	13.7	246.53063787184
12	13789	13.7252280195	246.87178316572
12	13796	13.8	247.88288549431
12	13890	13.8252280195	248.22403078819
[...]
111	11160	11.1	3
111	11188	11.2	4
111	11261	11.2	6
111	11288	11.3	9
111	11361	11.3	6
111	11389	11.4	7
111	11462	11.4	1
111	11490	11.5	3
111	11563	11.5	4
111	11590	11.6	5
111	11663	11.6	6
111	11690	11.7	7
111	11763	11.7	8
111	11791	11.8	9
111	11864	11.8	10
111	11892	11.9	0
111	11965	11.9	5
111	11993	12	6
111	12066	12	1
111	12093	12.1	2
111	12166	12.1	4
111	12193	12.2	6
111	12266	12.2	8
111	12293	12.3	1
111	12366	12.3	5
111	12395	12.4	7
111	12468	12.4	2
111	12497	12.5	4
111	12570	12.5	6
111	12598	12.6	8
111	12671	12.6	0
111	12699	12.7	2
111	12772	12.7	7
111	12801	12.8	8
111	12874	12.8	2
111	12901	12.9	4
111	12974	12.9	2
111	13001	13	4
111	13074	13	7
111	13101	13.1	10
111	13174	13.1	6
111	13201	13.2	8
111	13274	13.2	1
111	13302	13.3	3
111	13375	13.3	7
111	13402	13.4	9
111	13475	13.4	0
111	13503	13.5	2
111	13576	13.5	3
111	13603	13.6	4
111	13676	13.6	5
111	13703	13.7	6
111	13776	13.7	7
111	13805	13.8	9
111	13878	13.8	10
111	13905	13.9	0
111	13978	13.9	5
111	14005	14	9
111	14078	14	1
111	14106	14.1	1
111	14179	14.1	4
112	83	0.1	3
112	420	0.5	6
112	485	0.5	6
112	1394	1.4	0
112	3342	3.4	8
112	3442	3.5	2
112	3544	3.6	6
112	3645	3.7	8
112	3745	3.8	10
112	3845	3.9	1
112	3945	4	7
112	4047	4.1	3
112	4147	4.2	8
112	4247	4.3	7
112	4347	4.4	4
112	4447	4.5	8
112	4548	4.6	1
112	4649	4.7	10
112	4750	4.8	6
112	4852	4.9	1
112	4917	4.9	2
112	4953	5	7
112	5054	5.1	4
112	5155	5.2	9
112	5255	5.3	4
112	5355	5.4	0
112	5455	5.5	7
112	5520	5.5	9
112	5555	5.6	1
112	5620	5.6	3
112	5657	5.7	5
112	5722	5.7	9
112	5757	5.8	1
112	5822	5.8	3
112	5857	5.9	6
112	5922	5.9	0
112	5960	6	2
112	6025	6	2
112	6061	6.1	4
112	6126	6.1	4
112	6162	6.2	6
112	6227	6.2	6
112	6262	6.3	8
112	6327	6.3	8
112	6362	6.4	10
112	6427	6.4	10
112	6464	6.5	1
112	6529	6.5	1
112	6565	6.6	3
112	6630	6.6	4
112	6665	6.7	6
112	6730	6.7	6
112	6766	6.8	8
112	6831	6.8	8
112	6869	6.9	10
112	6934	6.9	10
112	6969	7	1
112	7034	7	3
112	7069	7.1	5
112	7134	7.1	8
112	7170	7.2	10
112	7235	7.2	1
112	7270	7.3	5
112	7335	7.3	8
112	7371	7.4	10
112	7436	7.4	3
112	7472	7.5	8
112	7537	7.5	10
112	7572	7.6	2
112	7637	7.6	3
112	7673	7.7	7
112	7738	7.7	0
112	7773	7.8	2
112	7838	7.8	7
112	7874	7.9	0
112	7939	7.9	1
112	7974	8	4
112	8039	8	8
112	8075	8.1	0
112	8140	8.1	1
112	8175	8.2	4
112	8240	8.2	7
112	8276	8.3	9
112	8341	8.3	4
112	8376	8.4	8
112	8441	8.4	10
112	8477	8.5	2
112	8542	8.5	4
112	8577	8.6	7
112	8642	8.6	1
112	8677	8.7	5
112	8742	8.7	9
112	8777	8.8	2
112	8842	8.8	6
112	8877	8.9	8
112	8942	8.9	0
112	8979	9	2
112	9044	9	4
112	9079	9.1	6
112	9144	9.1	7
112	9180	9.2	9
112	9245	9.2	3
112	9282	9.3	5
112	9347	9.3	8
112	9384	9.4	0
112	9449	9.4	6
112	9485	9.5	8
112	9550	9.5	3
112	9585	9.6	6
112	9650	9.6	9
112	9686	9.7	1
112	9751	9.7	2
112	9787	9.8	4
112	9852	9.8	6
112	9887	9.9	8
112	9952	9.9	1
112	9988	10	3
112	10053	10	8
112	10088	10.1	10
112	10153	10.1	1
112	10188	10.2	4
112	10253	10.2	5
112	10288	10.3	8
112	10353	10.3	2
112	10388	10.4	4
112	10453	10.4	7
112	10489	10.5	10
112	10554	10.5	4
112	10590	10.6	6
112	10655	10.6	9
112	10691	10.7	1
112	10756	10.7	4
112	10791	10.8	7
112	10856	10.8	8
112	10893	10.9	0
112	10958	10.9	1
112	10996	11	3
112	11061	11	9
112	11096	11.1	1
112	11161	11.1	3
112	11197	11.2	5
112	11262	11.2	6
112	11297	11.3	10
112	11362	11.3	6
112	11398	11.4	8
112	11463	11.4	1
112	11499	11.5	4
112	11564	11.5	4
112	11599	11.6	6
112	11664	11.6	6
112	11699	11.7	8
112	11764	11.7	8
112	11800	11.8	10
112	11865	11.8	10
112	11901	11.9	2
112	11966	11.9	5
112	12002	12	7
112	12067	12	1
112	12102	12.1	3
112	12167	12.1	4
112	12202	12.2	7
112	12267	12.2	8
112	12302	12.3	3
112	12367	12.3	5
112	12404	12.4	8
112	12469	12.4	2
112	12506	12.5	5
112	12571	12.5	6
112	12607	12.6	9
112	12672	12.6	0
112	12708	12.7	3
112	12773	12.7	7
112	12810	12.8	9
112	12875	12.8	2
112	12910	12.9	5
112	12975	12.9	2
112	13010	13	5
112	13075	13	7
112	13110	13.1	0
112	13175	13.1	6
112	13210	13.2	9
112	13275	13.2	1
112	13311	13.3	4
112	13376	13.3	7
112	13411	13.4	10
112	13476	13.4	0
112	13512	13.5	3
112	13577	13.5	3
112	13612	13.6	5
112	13677	13.6	5
112	13712	13.7	7
112	13777	13.7	7
112	13814	13.8	10
112	13879	13.8	10
112	13914	13.9	1
112	13979	13.9	5
112	14014	14	1
112	14079	14	1
112	14115	14.1	1
112	14180	14.1	4
113	84	0.1	4
113	185	0.2	6
113	285	0.3	8
113	385	0.4	3
113	486	0.5	7
113	587	0.6	8
113	687	0.7	10
113	790	0.8	5
113	890	0.9	7
113	992	1	9
113	1092	1.1	0
113	1194	1.2	2
113	1294	1.3	0
113	1395	1.4	1
113	1495	1.5	6
113	1595	1.6	8
113	1698	1.7	10
113	1802	1.8	1
113	1902	1.9	3
113	2002	2	10
113	2102	2.1	2
113	2203	2.2	4
113	2304	2.3	6
113	2404	2.4	8
113	2504	2.5	10
113	2605	2.6	2
113	2706	2.7	6
113	2807	2.8	5
113	2907	2.9	4
113	3008	3	3
113	3108	3.1	10
113	3208	3.2	9
113	3308	3.3	6
113	3408	3.4	0
113	3508	3.5	4
113	3610	3.6	6
113	3711	3.7	8
113	3811	3.8	10
113	3911	3.9	4
113	4011	4	10
113	4113	4.1	4
113	4213	4.2	5
113	4313	4.3	2
113	4413	4.4	6
113	4513	4.5	10
113	4614	4.6	8
113	4715	4.7	4
113	4816	4.8	9
113	4918	4.9	3
113	5019	5	2
113	5120	5.1	7
113	5221	5.2	2
113	5321	5.3	9
113	5421	5.4	4
113	5521	5.5	9
113	5621	5.6	3
113	5723	5.7	9
113	5823	5.8	3
113	5923	5.9	0
113	6026	6	2
113	6127	6.1	4
113	6228	6.2	6
113	6328	6.3	8
113	6428	6.4	10
113	6530	6.5	1
113	6631	6.6	4
113	6731	6.7	6
113	6832	6.8	8
113	6935	6.9	10
113	7035	7	3
113	7135	7.1	8
113	7236	7.2	1
113	7336	7.3	8
113	7437	7.4	3
113	7538	7.5	10
113	7638	7.6	3
113	7739	7.7	0
113	7839	7.8	7
113	7940	7.9	1
113	8040	8	8
113	8141	8.1	1
113	8241	8.2	7
113	8342	8.3	4
113	8442	8.4	10
113	8543	8.5	4
113	8643	8.6	1
113	8743	8.7	9
113	8843	8.8	6
113	8943	8.9	0
113	9045	9	4
113	9145	9.1	7
113	9246	9.2	3
113	9348	9.3	8
113	9450	9.4	6
113	9551	9.5	3
113	9651	9.6	9
113	9752	9.7	2
113	9853	9.8	6
113	9953	9.9	1
113	10054	10	8
113	10154	10.1	1
113	10254	10.2	5
113	10354	10.3	2
113	10454	10.4	7
113	10555	10.5	4
113	10656	10.6	9
113	10757	10.7	4
113	10857	10.8	8
113	10959	10.9	1
113	11062	11	9
113	11162	11.1	3
113	11263	11.2	6
113	11363	11.3	6
113	11464	11.4	1
113	11565	11.5	4
113	11665	11.6	6
113	11765	11.7	8
113	11866	11.8	10
113	11967	11.9	5
113	12068	12	1
113	12168	12.1	4
113	12268	12.2	8
113	12368	12.3	5
113	12413	12.4	9
113	12515	12.5	5
113	12572	12.5	6
113	12616	12.6	10
113	12717	12.7	3
113	12774	12.7	7
113	12819	12.8	9
113	12876	12.8	2
113	12919	12.9	6
113	12976	12.9	2
113	13276	13.2	1
113	13477	13.4	0
113	14080	14	1
113	14124	14.1	2
113	14181	14.1	4
114	85	0.1	4
114	186	0.2	6
114	237	0.3	4
114	286	0.3	8
114	337	0.4	8
114	386	0.4	3
114	438	0.5	8
114	487	0.5	7
114	1347	1.4	6
114	2054	2.1	2
114	2103	2.1	2
114	2155	2.2	4
114	2204	2.2	4
114	2256	2.3	6
114	2305	2.3	6
114	2356	2.4	8
114	2405	2.4	8
114	2456	2.5	10
114	2505	2.5	10
114	2557	2.6	1
114	2606	2.6	2
114	2658	2.7	5
114	2707	2.7	6
114	2759	2.8	10
114	2808	2.8	5
114	2859	2.9	8
114	2908	2.9	4
114	2960	3	7
114	3009	3	3
114	3060	3.1	6
114	3109	3.1	10
114	3160	3.2	2
114	3209	3.2	9
114	3260	3.3	2
114	3309	3.3	6
114	3360	3.4	8
114	3409	3.4	0
114	3460	3.5	2
114	3509	3.5	4
114	3562	3.6	6
114	3611	3.6	6
114	3663	3.7	8
114	3712	3.7	8
114	3763	3.8	10
114	3812	3.8	10
114	3863	3.9	2
114	3912	3.9	4
114	3963	4	8
114	4012	4	10
114	4065	4.1	4
114	4165	4.2	10
114	4214	4.2	5
114	4265	4.3	8
114	4314	4.3	2
114	4365	4.4	5
114	4414	4.4	6
114	4465	4.5	9
114	4514	4.5	10
114	4566	4.6	4
114	4615	4.6	8
114	4667	4.7	1
114	4716	4.7	4
114	4768	4.8	7
114	4817	4.8	9
114	4870	4.9	3
114	4919	4.9	3
114	4971	5	9
114	5072	5.1	4
114	5173	5.2	10
114	5273	5.3	6
114	5373	5.4	3
114	5473	5.5	8
114	5573	5.6	2
114	5675	5.7	5
114	5775	5.8	2
114	5875	5.9	9
114	5924	5.9	0
114	5978	6	2
114	6027	6	2
114	6079	6.1	4
114	6128	6.1	4
114	6180	6.2	6
114	6229	6.2	6
114	6280	6.3	8
114	6329	6.3	8
114	6380	6.4	10
114	6429	6.4	10
114	6482	6.5	1
114	6531	6.5	1
114	6583	6.6	4
114	6632	6.6	4
114	6683	6.7	6
114	6732	6.7	6
114	6784	6.8	8
114	6833	6.8	8
114	6887	6.9	10
114	6936	6.9	10
114	6987	7	1
114	7036	7	3
114	7087	7.1	6
114	7136	7.1	8
114	7188	7.2	10
114	7237	7.2	1
114	7288	7.3	6
114	7337	7.3	8
114	7389	7.4	1
114	7438	7.4	3
114	7490	7.5	9
114	7590	7.6	2
114	7691	7.7	9
114	7791	7.8	3
114	7892	7.9	1
114	7941	7.9	1
114	7992	8	4
114	8041	8	8
114	8093	8.1	0
114	8193	8.2	5
114	8242	8.2	7
114	8294	8.3	0
114	8343	8.3	4
114	8394	8.4	9
114	8443	8.4	10
114	8495	8.5	2
114	8544	8.5	4
114	8595	8.6	9
114	8644	8.6	1
114	8695	8.7	7
114	8744	8.7	9
114	8795	8.8	3
114	8895	8.9	9
114	8997	9	3
114	9097	9.1	6
114	9198	9.2	1
114	9300	9.3	8
114	9402	9.4	1
114	9451	9.4	6
114	9503	9.5	0
114	9552	9.5	3
114	9603	9.6	8
114	9652	9.6	9
114	9704	9.7	1
114	9753	9.7	2
114	9805	9.8	4
114	9854	9.8	6
114	9905	9.9	9
114	9954	9.9	1
114	10006	10	3
114	10055	10	8
114	10106	10.1	10
114	10155	10.1	1
114	10206	10.2	4
114	10255	10.2	5
114	10306	10.3	10
114	10355	10.3	2
114	10406	10.4	4
114	10455	10.4	7
114	10507	10.5	2
114	10556	10.5	4
114	10608	10.6	7
114	10657	10.6	9
114	10709	10.7	2
114	10758	10.7	4
114	10809	10.8	7
114	10858	10.8	8
114	10911	10.9	0
114	10960	10.9	1
114	11014	11	6
114	11063	11	9
114	11114	11.1	2
114	11163	11.1	3
114	11215	11.2	5
114	11264	11.2	6
114	11315	11.3	2
114	11364	11.3	6
114	11416	11.4	10
114	11465	11.4	1
114	11517	11.5	4
114	11566	11.5	4
114	11617	11.6	6
114	11666	11.6	6
114	11717	11.7	8
114	11766	11.7	8
114	11818	11.8	10
114	11867	11.8	10
114	11919	11.9	3
114	11968	11.9	5
114	12020	12	8
114	12069	12	1
114	12120	12.1	3
114	12169	12.1	4
114	12220	12.2	7
114	12320	12.3	5
114	12369	12.3	6
114	12422	12.4	9
114	12471	12.4	3
114	12524	12.5	5
114	12573	12.5	7
114	12625	12.6	10
114	12674	12.6	1
114	12726	12.7	3
114	12775	12.7	7
114	12828	12.8	10
114	12877	12.8	2
114	12928	12.9	7
114	12977	12.9	3
114	13028	13	5
114	13077	13	7
114	13128	13.1	2
114	13177	13.1	7
114	13228	13.2	10
114	13277	13.2	2
114	13329	13.3	4
114	13378	13.3	8
114	13429	13.4	10
114	13478	13.4	1
114	13530	13.5	3
114	13579	13.5	3
114	13630	13.6	5
114	13679	13.6	5
114	13730	13.7	7
114	13779	13.7	7
114	13832	13.8	10
114	13881	13.8	10
114	13932	13.9	2
114	13981	13.9	6
114	14032	14	7
114	14081	14	1
114	14133	14.1	2
114	14182	14.1	4
115	86	0.1	4
115	187	0.2	6
115	346	0.4	9
115	447	0.5	0
115	648	0.7	6
115	751	0.8	3
115	792	0.8	5
115	851	0.9	7
115	892	0.9	7
115	953	1	9
115	994	1	9
115	1053	1.1	0
115	1094	1.1	0
115	1155	1.2	2
115	1196	1.2	2
115	1255	1.3	9
115	1296	1.3	0
115	1356	1.4	7
115	1397	1.4	1
115	2969	3	8
115	3069	3.1	7
115	3169	3.2	3
115	3269	3.3	3
115	3369	3.4	8
115	3469	3.5	3
115	3571	3.6	6
115	3672	3.7	8
115	3772	3.8	10
115	3872	3.9	2
115	3972	4	8
115	4074	4.1	4
115	4174	4.2	0
115	4274	4.3	9
115	4374	4.4	5
115	4474	4.5	9
115	4575	4.6	5
115	4676	4.7	2
115	4777	4.8	7
115	4879	4.9	10
115	4980	5	10
115	5021	5	2
115	5081	5.1	4
115	5122	5.1	7
115	5182	5.2	10
115	5223	5.2	2
115	5282	5.3	6
115	5323	5.3	9
115	5382	5.4	3
115	5423	5.4	4
115	5482	5.5	8
115	5582	5.6	2
115	5623	5.6	3
115	5684	5.7	5
115	5725	5.7	9
115	5784	5.8	2
115	5825	5.8	4
115	5884	5.9	9
115	5925	5.9	0
115	5987	6	2
115	6028	6	2
115	6088	6.1	4
115	6129	6.1	4
115	6189	6.2	6
115	6230	6.2	6
115	6289	6.3	8
115	6330	6.3	8
115	6389	6.4	10
115	6430	6.4	10
115	6491	6.5	1
115	6532	6.5	1
115	6592	6.6	4
115	6633	6.6	4
115	6692	6.7	6
115	6733	6.7	6
115	6793	6.8	8
115	6834	6.8	8
115	6896	6.9	10
115	6937	6.9	10
115	6996	7	1
115	7037	7	3
115	7096	7.1	6
115	7137	7.1	8
115	7197	7.2	10
115	7238	7.2	1
115	7297	7.3	6
115	7338	7.3	8
115	7398	7.4	1
115	7439	7.4	4
115	7499	7.5	9
115	7540	7.5	10
115	7599	7.6	2
115	7640	7.6	3
115	7700	7.7	9
115	7741	7.7	0
115	7800	7.8	3
115	7841	7.8	8
115	7901	7.9	1
115	7942	7.9	1
115	8001	8	4
115	8042	8	9
115	8102	8.1	0
115	8143	8.1	2
115	8202	8.2	5
115	8243	8.2	7
115	8303	8.3	0
115	8344	8.3	4
115	8403	8.4	9
115	8444	8.4	10
115	8504	8.5	2
115	8545	8.5	4
115	8604	8.6	9
115	8645	8.6	1
115	8704	8.7	7
115	8745	8.7	10
115	8804	8.8	3
115	8904	8.9	9
115	9006	9	3
115	9106	9.1	6
115	9207	9.2	2
115	9309	9.3	8
115	9411	9.4	1
115	9512	9.5	0
115	9612	9.6	8
115	9653	9.6	9
115	9713	9.7	1
115	9814	9.8	4
115	9914	9.9	9
115	10015	10	3
115	10115	10.1	10
115	10215	10.2	4
115	10256	10.2	5
115	10315	10.3	10
115	10415	10.4	4
115	10516	10.5	3
115	10557	10.5	4
115	10617	10.6	7
115	10658	10.6	9
115	10718	10.7	2
115	10759	10.7	4
115	10818	10.8	7
115	10920	10.9	0
115	11023	11	6
115	11123	11.1	2
115	11164	11.1	3
115	11224	11.2	5
115	11265	11.2	6
115	11324	11.3	3
115	11425	11.4	10
115	11526	11.5	4
115	11567	11.5	4
115	11626	11.6	6
115	11667	11.6	6
115	11726	11.7	8
115	11767	11.7	8
115	11827	11.8	10
115	11868	11.8	10
115	11928	11.9	3
115	11969	11.9	5
115	12029	12	8
115	12070	12	1
115	12129	12.1	3
115	12170	12.1	5
115	12229	12.2	7
115	12270	12.2	9
115	12329	12.3	5
115	12431	12.4	9
115	12533	12.5	5
115	12634	12.6	10
115	12735	12.7	3
115	12837	12.8	10
115	12937	12.9	8
115	12978	12.9	3
115	13037	13	5
115	13078	13	7
115	13137	13.1	3
115	13237	13.2	0
115	13338	13.3	4
115	13438	13.4	10
115	13539	13.5	3
115	13639	13.6	5
115	13739	13.7	7
115	13841	13.8	10
115	13941	13.9	2
115	14041	14	9
115	14082	14	1
115	14142	14.1	3
115	14183	14.1	4
116	87	0.1	4
116	188	0.2	7
116	288	0.3	8
116	557	0.6	6
116	1465	1.5	5
116	3178	3.2	4
116	3278	3.3	4
116	3378	3.4	0
116	3478	3.5	4
116	3580	3.6	6
116	3681	3.7	8
116	3781	3.8	10
116	3881	3.9	2
116	3981	4	8
116	4083	4.1	4
116	4183	4.2	2
116	4283	4.3	10
116	4383	4.4	5
116	4483	4.5	9
116	4584	4.6	7
116	4685	4.7	3
116	4786	4.8	7
116	4888	4.9	10
116	4989	5	10
116	5090	5.1	4
116	5191	5.2	10
116	5291	5.3	6
116	5391	5.4	3
116	5491	5.5	8
116	5591	5.6	2
116	5693	5.7	5
116	5793	5.8	2
116	5893	5.9	9
116	5996	6	2
116	6097	6.1	4
116	6198	6.2	6
116	6298	6.3	8
116	6398	6.4	10
116	6500	6.5	1
116	6601	6.6	4
116	6701	6.7	6
116	6802	6.8	8
116	6905	6.9	10
116	7005	7	1
116	7105	7.1	6
116	7206	7.2	10
116	7306	7.3	6
116	7339	7.3	8
116	7407	7.4	1
116	7440	7.4	4
116	7508	7.5	9
116	7541	7.5	10
116	7608	7.6	2
116	7641	7.6	3
116	7709	7.7	10
116	7742	7.7	0
116	7809	7.8	3
116	7842	7.8	8
116	7910	7.9	1
116	7943	7.9	1
116	8010	8	4
116	8043	8	9
116	8111	8.1	0
116	8144	8.1	2
116	8211	8.2	6
116	8244	8.2	7
116	8312	8.3	2
116	8345	8.3	4
116	8412	8.4	9
116	8513	8.5	2
116	8546	8.5	4
116	8613	8.6	9
116	8646	8.6	1
116	8713	8.7	7
116	8813	8.8	6
116	8913	8.9	10
116	9015	9	3
116	9115	9.1	6
116	9216	9.2	2
116	9318	9.3	8
116	9420	9.4	2
116	9521	9.5	1
116	9621	9.6	8
116	9722	9.7	1
116	9823	9.8	4
116	9923	9.9	9
116	10024	10	6
116	10124	10.1	0
116	10224	10.2	4
116	10324	10.3	10
116	10424	10.4	4
116	10525	10.5	3
116	10626	10.6	7
116	10727	10.7	2
116	10760	10.7	5
116	10827	10.8	7
116	10860	10.8	8
116	10929	10.9	0
116	11032	11	6
116	11132	11.1	2
116	11233	11.2	5
116	11333	11.3	3
116	11366	11.3	6
116	11434	11.4	10
116	11467	11.4	2
116	11535	11.5	4
116	11568	11.5	4
116	11635	11.6	6
116	11668	11.6	6
116	11735	11.7	8
116	11768	11.7	8
116	11836	11.8	10
116	11869	11.8	10
116	11937	11.9	3
116	11970	11.9	5
116	12038	12	8
116	12071	12	1
116	12138	12.1	3
116	12171	12.1	5
116	12238	12.2	7
116	12271	12.2	10
116	12338	12.3	5
116	12440	12.4	9
116	12542	12.5	5
116	12643	12.6	0
116	12744	12.7	4
116	12846	12.8	10
116	12946	12.9	9
116	13046	13	5
116	13146	13.1	3
116	13246	13.2	0
116	13347	13.3	5
116	13447	13.4	10
116	13548	13.5	3
116	13648	13.6	5
116	13748	13.7	7
116	13850	13.8	10
116	13950	13.9	2
116	14050	14	10
116	14151	14.1	4
117	88	0.1	4
117	189	0.2	7
117	289	0.3	9
117	389	0.4	3
117	490	0.5	8
117	591	0.6	8
117	691	0.7	0
117	794	0.8	5
117	894	0.9	7
117	996	1	9
117	1096	1.1	0
117	1198	1.2	2
117	1298	1.3	0
117	1399	1.4	2
117	3287	3.3	6
117	3387	3.4	0
117	3487	3.5	4
117	3589	3.6	6
117	3690	3.7	8
117	3790	3.8	10
117	3890	3.9	3
117	3990	4	8
117	4092	4.1	4
117	4192	4.2	3
117	4292	4.3	10
117	4392	4.4	5
117	4492	4.5	9
117	4593	4.6	7
117	4694	4.7	4
117	4795	4.8	7
117	4897	4.9	10
117	4998	5	0
117	5099	5.1	4
117	5300	5.3	7
117	5400	5.4	3
117	5500	5.5	8
117	5600	5.6	2
117	5702	5.7	6
117	5802	5.8	2
117	5902	5.9	9
117	7114	7.1	6
117	7542	7.5	10
117	7642	7.6	3
117	7718	7.7	10
117	7818	7.8	4
117	7919	7.9	1
117	8019	8	5
117	8044	8	9
117	8120	8.1	1
117	8145	8.1	2
117	8220	8.2	7
117	8245	8.2	7
117	8321	8.3	3
117	8346	8.3	5
117	8421	8.4	10
117	8522	8.5	3
117	8622	8.6	9
117	8647	8.6	2
117	8722	8.7	7
117	8822	8.8	6
117	8922	8.9	10
117	9024	9	3
117	9124	9.1	7
117	9225	9.2	2
117	9327	9.3	8
117	9429	9.4	3
117	9530	9.5	1
117	9630	9.6	9
117	9731	9.7	1
117	9832	9.8	5
117	9932	9.9	10
117	10033	10	6
117	10133	10.1	0
117	10233	10.2	5
117	10333	10.3	0
117	10433	10.4	5
117	10534	10.5	4
117	10635	10.6	8
117	10736	10.7	2
117	11443	11.4	10
117	12147	12.1	4
117	12247	12.2	8
117	12347	12.3	5
117	12449	12.4	0
117	12551	12.5	5
117	12652	12.6	0
117	12753	12.7	6
117	12855	12.8	10
117	12955	12.9	10
117	13055	13	5
117	13155	13.1	4
117	13180	13.1	7
117	13255	13.2	1
117	13280	13.2	2
117	13356	13.3	7
117	13381	13.3	8
117	13456	13.4	0
117	13481	13.4	1
117	13557	13.5	3
117	13582	13.5	3
117	13657	13.6	5
117	13682	13.6	5
117	13757	13.7	7
117	13782	13.7	7
117	13859	13.8	10
117	13884	13.8	10
117	13959	13.9	3
117	13984	13.9	7
117	14059	14	0
117	14084	14	1
117	14160	14.1	4
117	14185	14.1	4
118	89	0.1	4
118	173	0.2	5
118	273	0.3	8
118	290	0.3	9
118	373	0.4	0
118	390	0.4	3
118	474	0.5	5
118	491	0.5	8
118	4101	4.1	4
118	4201	4.2	4
118	4602	4.6	7
118	4703	4.7	4
118	4804	4.8	8
118	4906	4.9	0
118	5007	5	0
118	5108	5.1	6
118	5209	5.2	1
118	5309	5.3	7
118	5409	5.4	3
118	5509	5.5	9
118	5609	5.6	3
118	5711	5.7	7
118	5811	5.8	2
118	5911	5.9	0
118	6014	6	2
118	6115	6.1	4
118	6216	6.2	6
118	6316	6.3	8
118	6416	6.4	10
118	6518	6.5	1
118	6619	6.6	4
118	6719	6.7	6
118	6820	6.8	8
118	6923	6.9	10
118	7023	7	3
118	7123	7.1	7
118	7224	7.2	1
118	7324	7.3	8
118	7425	7.4	2
118	7526	7.5	9
118	7626	7.6	3
118	7727	7.7	10
118	7827	7.8	6
118	7928	7.9	1
118	8028	8	7
118	8129	8.1	1
118	8229	8.2	7
118	8330	8.3	3
118	8430	8.4	10
118	8531	8.5	4
118	8631	8.6	0
118	8831	8.8	6
118	8931	8.9	0
118	9033	9	3
118	9133	9.1	7
118	9234	9.2	2
118	9336	9.3	8
118	9438	9.4	5
118	9539	9.5	2
118	9639	9.6	9
118	9740	9.7	1
118	9841	9.8	5
118	9941	9.9	10
118	10042	10	7
118	10142	10.1	1
118	10242	10.2	5
118	10342	10.3	1
118	10442	10.4	6
118	10543	10.5	4
118	10644	10.6	9
118	10745	10.7	4
118	10845	10.8	8
118	10947	10.9	1
118	11050	11	9
118	11150	11.1	2
118	11251	11.2	6
118	11351	11.3	5
118	11452	11.4	1
118	11553	11.5	4
118	11653	11.6	6
118	11753	11.7	8
118	11854	11.8	10
118	11955	11.9	4
118	12056	12	10
118	12156	12.1	4
118	12256	12.2	8
118	12356	12.3	5
118	12458	12.4	0
118	12560	12.5	6
118	12661	12.6	0
118	12762	12.7	6
118	12864	12.8	0
118	12964	12.9	0
118	13064	13	6
118	13164	13.1	5
118	13264	13.2	1
118	13365	13.3	7
118	13465	13.4	0
118	13566	13.5	3
118	13666	13.6	5
118	13766	13.7	7
118	13868	13.8	10
118	13968	13.9	3
118	14068	14	0
118	14169	14.1	4
119	90	0.1	5
119	191	0.2	8
119	291	0.3	9
119	391	0.4	3
119	492	0.5	9
119	887	0.9	7
119	989	1	9
119	1089	1.1	0
119	1191	1.2	2
119	1291	1.3	10
119	1392	1.4	10
119	4712	4.7	4
119	4813	4.8	8
119	4915	4.9	2
119	5016	5	2
119	5117	5.1	7
119	5218	5.2	2
119	5318	5.3	9
119	5418	5.4	3
119	5518	5.5	9
119	5618	5.6	3
119	5720	5.7	9
119	5820	5.8	3
119	5920	5.9	0
119	6023	6	2
119	6124	6.1	4
119	6225	6.2	6
119	6325	6.3	8
119	6425	6.4	10
119	6527	6.5	1
119	6628	6.6	4
119	6728	6.7	6
119	6829	6.8	8
119	6932	6.9	10
119	7032	7	3
119	7132	7.1	8
119	7233	7.2	1
119	7333	7.3	8
119	7434	7.4	3
119	7535	7.5	10
119	7635	7.6	3
119	7736	7.7	0
119	7836	7.8	7
119	7937	7.9	1
119	8037	8	8
119	8138	8.1	1
119	8238	8.2	7
119	8339	8.3	4
119	8439	8.4	10
119	8540	8.5	4
119	8640	8.6	1
119	8740	8.7	9
119	8840	8.8	6
119	8940	8.9	0
119	9042	9	4
119	9142	9.1	7
119	9243	9.2	3
119	9345	9.3	8
119	9447	9.4	6
119	9548	9.5	3
119	9648	9.6	9
119	9749	9.7	2
119	9850	9.8	6
119	9950	9.9	0
119	10051	10	7
119	10151	10.1	1
119	10251	10.2	5
119	10351	10.3	2
119	10451	10.4	7
119	10552	10.5	4
119	10653	10.6	9
119	10754	10.7	4
119	10854	10.8	8
119	10956	10.9	1
119	11059	11	9
119	11159	11.1	3
119	11260	11.2	6
119	11360	11.3	6
119	11461	11.4	1
119	11562	11.5	4
119	11662	11.6	6
119	11762	11.7	8
119	11863	11.8	10
119	11964	11.9	5
119	12065	12	1
119	12165	12.1	4
119	12265	12.2	8
119	12365	12.3	5
119	12467	12.4	2
119	12569	12.5	6
119	12670	12.6	0
119	12771	12.7	7
119	12873	12.8	2
119	12973	12.9	2
119	13073	13	7
119	13173	13.1	6
119	13273	13.2	1
119	13374	13.3	7
119	13474	13.4	0
119	13575	13.5	3
119	13675	13.6	5
119	13775	13.7	7
119	13877	13.8	10
119	13977	13.9	5
119	14077	14	1
119	14178	14.1	4

